Using: /opt/synopsys/hspice/O-2018.09-SP2-2/hspice/linux64/hspice c17.sp
 ****** HSPICE -- O-2018.09-SP2-2 linux64 (May  9 2019) ******                  
  Copyright (c) 1986 - 2020 by Synopsys, Inc. All Rights Reserved.              
  This software and the associated documentation are proprietary
  to Synopsys, Inc. This software may only be used in accordance
  with the terms and conditions of a written license agreement with
  Synopsys, Inc. All other use, reproduction, or distribution of
  this software is strictly prohibited.
  Input File: c17.sp                                                            
  Command line options: /opt/synopsys/hspice/O-2018.09-SP2-2/hspice/linux64/hspice c17.sp
  Start time: Mon Feb 24 01:31:26 2020
 lic:  
 lic: FLEXlm: SDK_11.7.3 
 lic: USER:   mitsushij            HOSTNAME: sahand 
 lic: HOSTID: "80c16e72eecb"       PID:      80431 
 lic: Using FLEXlm license file: 
 lic: 1720@ics-lic2.usc.edu 
 lic: Checkout 1 hspice 
 lic: License/Maintenance for hspice will expire on 30-jun-2021/2019.06 
 lic: 1(in_use)/50(total) FLOATING license(s) on SERVER 1720@ics-lic2.usc.edu 
 lic:   
  **warning** (./7nm_LSTP.pm:13) Model nfet device geometries will not be checked against the limits set by lmin, lmax, nfinmin and nfinmax. To enable this check, add a period(.) to the model name(i.e. enable model selector).
1****** HSPICE -- O-2018.09-SP2-2 linux64 (May  9 2019) ******                  
 ******  
 * c17.v spice version created using eda's tool.

 ****** circuit name directory
 circuit number to circuit name directory
   number circuitname                     definition         multiplier
        0 main circuit
        1 x0.                             nand2              1.00 
        2 x1.                             nand2              1.00 
        3 x2.                             nand2              1.00 
        4 x3.                             nand2              1.00 
        5 x4.                             nand2              1.00 
        6 x5.                             nand2              1.00 
  **info** (c17.sp:40) DC voltage reset to initial transient source value in source 0:vn7. new dc=0.0000D+00
  
      

Element variations(Local):   element              parameter
 **info** set option symb=1 internally to help for convergence.
 *****************************************************************
 ******  option summary
 ******
 runlvl  = 3         bypass  = 2.0000    
 ******  
 * c17.v spice version created using eda's tool.

 ****** operating point information tnom=  25.000 temp=  25.000 ******
 ****** operating point status is voltage   simulation time is     0.     
    node    =voltage      node    =voltage      node    =voltage

 +0:hi      = 700.0000m 0:lo      =   0.      0:n1      = 700.0000m
 +0:n10     = 126.2515n 0:n11     = 699.9999m 0:n16     = 699.9999m
 +0:n19     = 699.9999m 0:n2      =   0.      0:n22     = 700.0000m
 +0:n23     = 126.1730n 0:n3      = 700.0000m 0:n6      =   0.     
 +0:n7      =   0.      1:n1      =  82.2154n 2:n1      = 649.8246m
 +3:n1      =  31.6057n 4:n1      = 649.8246m 5:n1      =  31.6058n
 +6:n1      =  82.1762n

 ******
 * c17.v spice version created using eda's tool.

 ****** transient analysis tnom=  25.000 temp=  25.000 ******
x

 time         voltage    voltage   
             n22        n23        
    0.        700.0000m  126.1730n 
   10.00000f  700.0000m  126.1730n 
   20.00000f  700.0000m  126.1730n 
   30.00000f  700.0000m  126.1730n 
   40.00000f  700.0000m  126.1730n 
   50.00000f  700.0000m  126.1730n 
   60.00000f  700.0000m  126.1730n 
   70.00000f  700.0000m  126.1730n 
   80.00000f  700.0000m  126.1730n 
   90.00000f  700.0000m  126.1730n 
  100.00000f  700.0000m  126.1730n 
  110.00000f  700.0000m  126.1730n 
  120.00000f  700.0000m  126.1730n 
  130.00000f  700.0000m  126.1730n 
  140.00000f  700.0000m  126.1730n 
  150.00000f  700.0000m  126.1730n 
  160.00000f  700.0000m  126.1730n 
  170.00000f  700.0000m  126.1730n 
  180.00000f  700.0000m  126.1730n 
  190.00000f  700.0000m  126.1730n 
  200.00000f  700.0000m  126.1730n 
  210.00000f  700.0000m  126.1730n 
  220.00000f  700.0000m  126.1730n 
  230.00000f  700.0000m  126.1730n 
  240.00000f  700.0000m  126.1730n 
  250.00000f  700.0000m  126.1730n 
  260.00000f  700.0000m  126.1730n 
  270.00000f  700.0000m  126.1730n 
  280.00000f  700.0000m  126.1730n 
  290.00000f  700.0000m  126.1730n 
  300.00000f  700.0000m  126.1730n 
  310.00000f  700.0000m  126.1730n 
  320.00000f  700.0000m  126.1730n 
  330.00000f  700.0000m  126.1730n 
  340.00000f  700.0000m  126.1730n 
  350.00000f  700.0000m  126.1730n 
  360.00000f  700.0000m  126.1730n 
  370.00000f  700.0000m  126.1730n 
  380.00000f  700.0000m  126.1730n 
  390.00000f  700.0000m  126.1730n 
  400.00000f  700.0000m  126.1730n 
  410.00000f  700.0000m  126.1730n 
  420.00000f  700.0000m  126.1730n 
  430.00000f  700.0000m  126.1730n 
  440.00000f  700.0000m  126.1730n 
  450.00000f  700.0000m  126.1730n 
  460.00000f  700.0000m  126.1730n 
  470.00000f  700.0000m  126.1730n 
  480.00000f  700.0000m  126.1730n 
  490.00000f  700.0000m  126.1730n 
  500.00000f  700.0000m  126.1730n 
  510.00000f  700.0000m  126.1730n 
  520.00000f  700.0000m  126.1730n 
  530.00000f  700.0000m  126.1730n 
  540.00000f  700.0000m  126.1730n 
  550.00000f  700.0000m  126.1730n 
  560.00000f  700.0000m  126.1730n 
  570.00000f  700.0000m  126.1730n 
  580.00000f  700.0000m  126.1730n 
  590.00000f  700.0000m  126.1730n 
  600.00000f  700.0000m  126.1730n 
  610.00000f  700.0000m  126.1730n 
  620.00000f  700.0000m  126.1730n 
  630.00000f  700.0000m  126.1730n 
  640.00000f  700.0000m  126.1730n 
  650.00000f  700.0000m  126.1730n 
  660.00000f  700.0000m  126.1730n 
  670.00000f  700.0000m  126.1730n 
  680.00000f  700.0000m  126.1730n 
  690.00000f  700.0000m  126.1730n 
  700.00000f  700.0000m  126.1730n 
  710.00000f  700.0000m  126.1730n 
  720.00000f  700.0000m  126.1730n 
  730.00000f  700.0000m  126.1730n 
  740.00000f  700.0000m  126.1730n 
  750.00000f  700.0000m  126.1730n 
  760.00000f  700.0000m  126.1730n 
  770.00000f  700.0000m  126.1730n 
  780.00000f  700.0000m  126.1730n 
  790.00000f  700.0000m  126.1730n 
  800.00000f  700.0000m  126.1730n 
  810.00000f  700.0000m  126.1730n 
  820.00000f  700.0000m  126.1730n 
  830.00000f  700.0000m  126.1730n 
  840.00000f  700.0000m  126.1730n 
  850.00000f  700.0000m  126.1730n 
  860.00000f  700.0000m  126.1730n 
  870.00000f  700.0000m  126.1730n 
  880.00000f  700.0000m  126.1730n 
  890.00000f  700.0000m  126.1730n 
  900.00000f  700.0000m  126.1730n 
  910.00000f  700.0000m  126.1730n 
  920.00000f  700.0000m  126.1730n 
  930.00000f  700.0000m  126.1730n 
  940.00000f  700.0000m  126.1730n 
  950.00000f  700.0000m  126.1730n 
  960.00000f  700.0000m  126.1730n 
  970.00000f  700.0000m  126.1730n 
  980.00000f  700.0000m  126.1730n 
  990.00000f  700.0000m  126.1730n 
    1.00000p  700.0000m  126.1730n 
    1.01000p  700.0000m  126.1730n 
    1.02000p  700.0000m  126.1730n 
    1.03000p  700.0000m  126.1730n 
    1.04000p  700.0000m  126.1730n 
    1.05000p  700.0000m  126.1730n 
    1.06000p  700.0000m  126.1730n 
    1.07000p  700.0000m  126.1730n 
    1.08000p  700.0000m  126.1730n 
    1.09000p  700.0000m  126.1730n 
    1.10000p  700.0000m  126.1730n 
    1.11000p  700.0000m  126.1730n 
    1.12000p  700.0000m  126.1730n 
    1.13000p  700.0000m  126.1730n 
    1.14000p  700.0000m  126.1730n 
    1.15000p  700.0000m  126.1730n 
    1.16000p  700.0000m  126.1730n 
    1.17000p  700.0000m  126.1730n 
    1.18000p  700.0000m  126.1730n 
    1.19000p  700.0000m  126.1730n 
    1.20000p  700.0000m  126.1730n 
    1.21000p  700.0000m  126.1730n 
    1.22000p  700.0000m  126.1730n 
    1.23000p  700.0000m  126.1730n 
    1.24000p  700.0000m  126.1730n 
    1.25000p  700.0000m  126.1730n 
    1.26000p  700.0000m  126.1730n 
    1.27000p  700.0000m  126.1730n 
    1.28000p  700.0000m  126.1730n 
    1.29000p  700.0000m  126.1730n 
    1.30000p  700.0000m  126.1730n 
    1.31000p  700.0000m  126.1730n 
    1.32000p  700.0000m  126.1730n 
    1.33000p  700.0000m  126.1730n 
    1.34000p  700.0000m  126.1730n 
    1.35000p  700.0000m  126.1730n 
    1.36000p  700.0000m  126.1730n 
    1.37000p  700.0000m  126.1730n 
    1.38000p  700.0000m  126.1730n 
    1.39000p  700.0000m  126.1730n 
    1.40000p  700.0000m  126.1730n 
    1.41000p  700.0000m  126.1730n 
    1.42000p  700.0000m  126.1730n 
    1.43000p  700.0000m  126.1730n 
    1.44000p  700.0000m  126.1730n 
    1.45000p  700.0000m  126.1730n 
    1.46000p  700.0000m  126.1730n 
    1.47000p  700.0000m  126.1730n 
    1.48000p  700.0000m  126.1730n 
    1.49000p  700.0000m  126.1730n 
    1.50000p  700.0000m  126.1730n 
    1.51000p  700.0000m  126.1730n 
    1.52000p  700.0000m  126.1730n 
    1.53000p  700.0000m  126.1730n 
    1.54000p  700.0000m  126.1730n 
    1.55000p  700.0000m  126.1730n 
    1.56000p  700.0000m  126.1730n 
    1.57000p  700.0000m  126.1730n 
    1.58000p  700.0000m  126.1730n 
    1.59000p  700.0000m  126.1730n 
    1.60000p  700.0000m  126.1730n 
    1.61000p  700.0000m  126.1730n 
    1.62000p  700.0000m  126.1730n 
    1.63000p  700.0000m  126.1730n 
    1.64000p  700.0000m  126.1730n 
    1.65000p  700.0000m  126.1730n 
    1.66000p  700.0000m  126.1730n 
    1.67000p  700.0000m  126.1730n 
    1.68000p  700.0000m  126.1730n 
    1.69000p  700.0000m  126.1730n 
    1.70000p  700.0000m  126.1730n 
    1.71000p  700.0000m  126.1730n 
    1.72000p  700.0000m  126.1730n 
    1.73000p  700.0000m  126.1730n 
    1.74000p  700.0000m  126.1730n 
    1.75000p  700.0000m  126.1730n 
    1.76000p  700.0000m  126.1730n 
    1.77000p  700.0000m  126.1730n 
    1.78000p  700.0000m  126.1730n 
    1.79000p  700.0000m  126.1730n 
    1.80000p  700.0000m  126.1730n 
    1.81000p  700.0000m  126.1730n 
    1.82000p  700.0000m  126.1730n 
    1.83000p  700.0000m  126.1730n 
    1.84000p  700.0000m  126.1730n 
    1.85000p  700.0000m  126.1730n 
    1.86000p  700.0000m  126.1730n 
    1.87000p  700.0000m  126.1730n 
    1.88000p  700.0000m  126.1730n 
    1.89000p  700.0000m  126.1730n 
    1.90000p  700.0000m  126.1730n 
    1.91000p  700.0000m  126.1730n 
    1.92000p  700.0000m  126.1730n 
    1.93000p  700.0000m  126.1730n 
    1.94000p  700.0000m  126.1730n 
    1.95000p  700.0000m  126.1730n 
    1.96000p  700.0000m  126.1730n 
    1.97000p  700.0000m  126.1730n 
    1.98000p  700.0000m  126.1730n 
    1.99000p  700.0000m  126.1730n 
    2.00000p  700.0000m  126.1730n 
    2.01000p  700.0000m  126.1730n 
    2.02000p  700.0000m  126.1730n 
    2.03000p  700.0000m  126.1730n 
    2.04000p  700.0000m  126.1730n 
    2.05000p  700.0000m  126.1730n 
    2.06000p  700.0000m  126.1730n 
    2.07000p  700.0000m  126.1730n 
    2.08000p  700.0000m  126.1730n 
    2.09000p  700.0000m  126.1730n 
    2.10000p  700.0000m  126.1730n 
    2.11000p  700.0000m  126.1730n 
    2.12000p  700.0000m  126.1730n 
    2.13000p  700.0000m  126.1730n 
    2.14000p  700.0000m  126.1730n 
    2.15000p  700.0000m  126.1730n 
    2.16000p  700.0000m  126.1730n 
    2.17000p  700.0000m  126.1730n 
    2.18000p  700.0000m  126.1730n 
    2.19000p  700.0000m  126.1730n 
    2.20000p  700.0000m  126.1730n 
    2.21000p  700.0000m  126.1730n 
    2.22000p  700.0000m  126.1730n 
    2.23000p  700.0000m  126.1730n 
    2.24000p  700.0000m  126.1730n 
    2.25000p  700.0000m  126.1730n 
    2.26000p  700.0000m  126.1730n 
    2.27000p  700.0000m  126.1730n 
    2.28000p  700.0000m  126.1730n 
    2.29000p  700.0000m  126.1730n 
    2.30000p  700.0000m  126.1730n 
    2.31000p  700.0000m  126.1730n 
    2.32000p  700.0000m  126.1730n 
    2.33000p  700.0000m  126.1730n 
    2.34000p  700.0000m  126.1730n 
    2.35000p  700.0000m  126.1730n 
    2.36000p  700.0000m  126.1730n 
    2.37000p  700.0000m  126.1730n 
    2.38000p  700.0000m  126.1730n 
    2.39000p  700.0000m  126.1730n 
    2.40000p  700.0000m  126.1730n 
    2.41000p  700.0000m  126.1730n 
    2.42000p  700.0000m  126.1730n 
    2.43000p  700.0000m  126.1730n 
    2.44000p  700.0000m  126.1730n 
    2.45000p  700.0000m  126.1730n 
    2.46000p  700.0000m  126.1730n 
    2.47000p  700.0000m  126.1730n 
    2.48000p  700.0000m  126.1730n 
    2.49000p  700.0000m  126.1730n 
    2.50000p  700.0000m  126.1730n 
    2.51000p  700.0000m  126.1730n 
    2.52000p  700.0000m  126.1730n 
    2.53000p  700.0000m  126.1730n 
    2.54000p  700.0000m  126.1730n 
    2.55000p  700.0000m  126.1730n 
    2.56000p  700.0000m  126.1730n 
    2.57000p  700.0000m  126.1730n 
    2.58000p  700.0000m  126.1730n 
    2.59000p  700.0000m  126.1730n 
    2.60000p  700.0000m  126.1730n 
    2.61000p  700.0000m  126.1730n 
    2.62000p  700.0000m  126.1730n 
    2.63000p  700.0000m  126.1730n 
    2.64000p  700.0000m  126.1730n 
    2.65000p  700.0000m  126.1730n 
    2.66000p  700.0000m  126.1730n 
    2.67000p  700.0000m  126.1730n 
    2.68000p  700.0000m  126.1730n 
    2.69000p  700.0000m  126.1730n 
    2.70000p  700.0000m  126.1730n 
    2.71000p  700.0000m  126.1730n 
    2.72000p  700.0000m  126.1730n 
    2.73000p  700.0000m  126.1730n 
    2.74000p  700.0000m  126.1730n 
    2.75000p  700.0000m  126.1730n 
    2.76000p  700.0000m  126.1730n 
    2.77000p  700.0000m  126.1730n 
    2.78000p  700.0000m  126.1730n 
    2.79000p  700.0000m  126.1730n 
    2.80000p  700.0000m  126.1730n 
    2.81000p  700.0000m  126.1730n 
    2.82000p  700.0000m  126.1730n 
    2.83000p  700.0000m  126.1730n 
    2.84000p  700.0000m  126.1730n 
    2.85000p  700.0000m  126.1730n 
    2.86000p  700.0000m  126.1730n 
    2.87000p  700.0000m  126.1730n 
    2.88000p  700.0000m  126.1730n 
    2.89000p  700.0000m  126.1730n 
    2.90000p  700.0000m  126.1730n 
    2.91000p  700.0000m  126.1730n 
    2.92000p  700.0000m  126.1730n 
    2.93000p  700.0000m  126.1730n 
    2.94000p  700.0000m  126.1730n 
    2.95000p  700.0000m  126.1730n 
    2.96000p  700.0000m  126.1730n 
    2.97000p  700.0000m  126.1730n 
    2.98000p  700.0000m  126.1730n 
    2.99000p  700.0000m  126.1730n 
    3.00000p  700.0000m  126.1730n 
    3.01000p  700.0000m  126.1730n 
    3.02000p  700.0000m  126.1730n 
    3.03000p  700.0000m  126.1730n 
    3.04000p  700.0000m  126.1730n 
    3.05000p  700.0000m  126.1730n 
    3.06000p  700.0000m  126.1730n 
    3.07000p  700.0000m  126.1730n 
    3.08000p  700.0000m  126.1730n 
    3.09000p  700.0000m  126.1730n 
    3.10000p  700.0000m  126.1730n 
    3.11000p  700.0000m  126.1730n 
    3.12000p  700.0000m  126.1730n 
    3.13000p  700.0000m  126.1730n 
    3.14000p  700.0000m  126.1730n 
    3.15000p  700.0000m  126.1730n 
    3.16000p  700.0000m  126.1730n 
    3.17000p  700.0000m  126.1730n 
    3.18000p  700.0000m  126.1730n 
    3.19000p  700.0000m  126.1730n 
    3.20000p  700.0000m  126.1730n 
    3.21000p  700.0000m  126.1730n 
    3.22000p  700.0000m  126.1730n 
    3.23000p  700.0000m  126.1730n 
    3.24000p  700.0000m  126.1730n 
    3.25000p  700.0000m  126.1730n 
    3.26000p  700.0000m  126.1730n 
    3.27000p  700.0000m  126.1730n 
    3.28000p  700.0000m  126.1730n 
    3.29000p  700.0000m  126.1730n 
    3.30000p  700.0000m  126.1730n 
    3.31000p  700.0000m  126.1730n 
    3.32000p  700.0000m  126.1730n 
    3.33000p  700.0000m  126.1730n 
    3.34000p  700.0000m  126.1730n 
    3.35000p  700.0000m  126.1730n 
    3.36000p  700.0000m  126.1730n 
    3.37000p  700.0000m  126.1730n 
    3.38000p  700.0000m  126.1730n 
    3.39000p  700.0000m  126.1730n 
    3.40000p  700.0000m  126.1730n 
    3.41000p  700.0000m  126.1730n 
    3.42000p  700.0000m  126.1730n 
    3.43000p  700.0000m  126.1730n 
    3.44000p  700.0000m  126.1730n 
    3.45000p  700.0000m  126.1730n 
    3.46000p  700.0000m  126.1730n 
    3.47000p  700.0000m  126.1730n 
    3.48000p  700.0000m  126.1730n 
    3.49000p  700.0000m  126.1730n 
    3.50000p  700.0000m  126.1730n 
    3.51000p  700.0000m  126.1730n 
    3.52000p  700.0000m  126.1730n 
    3.53000p  700.0000m  126.1730n 
    3.54000p  700.0000m  126.1730n 
    3.55000p  700.0000m  126.1730n 
    3.56000p  700.0000m  126.1730n 
    3.57000p  700.0000m  126.1730n 
    3.58000p  700.0000m  126.1730n 
    3.59000p  700.0000m  126.1730n 
    3.60000p  700.0000m  126.1730n 
    3.61000p  700.0000m  126.1730n 
    3.62000p  700.0000m  126.1730n 
    3.63000p  700.0000m  126.1730n 
    3.64000p  700.0000m  126.1730n 
    3.65000p  700.0000m  126.1730n 
    3.66000p  700.0000m  126.1730n 
    3.67000p  700.0000m  126.1730n 
    3.68000p  700.0000m  126.1730n 
    3.69000p  700.0000m  126.1730n 
    3.70000p  700.0000m  126.1730n 
    3.71000p  700.0000m  126.1730n 
    3.72000p  700.0000m  126.1730n 
    3.73000p  700.0000m  126.1730n 
    3.74000p  700.0000m  126.1730n 
    3.75000p  700.0000m  126.1730n 
    3.76000p  700.0000m  126.1730n 
    3.77000p  700.0000m  126.1730n 
    3.78000p  700.0000m  126.1730n 
    3.79000p  700.0000m  126.1730n 
    3.80000p  700.0000m  126.1730n 
    3.81000p  700.0000m  126.1730n 
    3.82000p  700.0000m  126.1730n 
    3.83000p  700.0000m  126.1730n 
    3.84000p  700.0000m  126.1730n 
    3.85000p  700.0000m  126.1730n 
    3.86000p  700.0000m  126.1730n 
    3.87000p  700.0000m  126.1730n 
    3.88000p  700.0000m  126.1730n 
    3.89000p  700.0000m  126.1730n 
    3.90000p  700.0000m  126.1730n 
    3.91000p  700.0000m  126.1730n 
    3.92000p  700.0000m  126.1730n 
    3.93000p  700.0000m  126.1730n 
    3.94000p  700.0000m  126.1730n 
    3.95000p  700.0000m  126.1730n 
    3.96000p  700.0000m  126.1730n 
    3.97000p  700.0000m  126.1730n 
    3.98000p  700.0000m  126.1730n 
    3.99000p  700.0000m  126.1730n 
    4.00000p  700.0000m  126.1730n 
    4.01000p  700.0000m  126.1730n 
    4.02000p  700.0000m  126.1730n 
    4.03000p  700.0000m  126.1730n 
    4.04000p  700.0000m  126.1730n 
    4.05000p  700.0000m  126.1730n 
    4.06000p  700.0000m  126.1730n 
    4.07000p  700.0000m  126.1730n 
    4.08000p  700.0000m  126.1730n 
    4.09000p  700.0000m  126.1730n 
    4.10000p  700.0000m  126.1730n 
    4.11000p  700.0000m  126.1730n 
    4.12000p  700.0000m  126.1730n 
    4.13000p  700.0000m  126.1730n 
    4.14000p  700.0000m  126.1730n 
    4.15000p  700.0000m  126.1730n 
    4.16000p  700.0000m  126.1730n 
    4.17000p  700.0000m  126.1730n 
    4.18000p  700.0000m  126.1730n 
    4.19000p  700.0000m  126.1730n 
    4.20000p  700.0000m  126.1730n 
    4.21000p  700.0000m  126.1730n 
    4.22000p  700.0000m  126.1730n 
    4.23000p  700.0000m  126.1730n 
    4.24000p  700.0000m  126.1730n 
    4.25000p  700.0000m  126.1730n 
    4.26000p  700.0000m  126.1730n 
    4.27000p  700.0000m  126.1730n 
    4.28000p  700.0000m  126.1730n 
    4.29000p  700.0000m  126.1730n 
    4.30000p  700.0000m  126.1730n 
    4.31000p  700.0000m  126.1730n 
    4.32000p  700.0000m  126.1730n 
    4.33000p  700.0000m  126.1730n 
    4.34000p  700.0000m  126.1730n 
    4.35000p  700.0000m  126.1730n 
    4.36000p  700.0000m  126.1730n 
    4.37000p  700.0000m  126.1730n 
    4.38000p  700.0000m  126.1730n 
    4.39000p  700.0000m  126.1730n 
    4.40000p  700.0000m  126.1730n 
    4.41000p  700.0000m  126.1730n 
    4.42000p  700.0000m  126.1730n 
    4.43000p  700.0000m  126.1730n 
    4.44000p  700.0000m  126.1730n 
    4.45000p  700.0000m  126.1730n 
    4.46000p  700.0000m  126.1730n 
    4.47000p  700.0000m  126.1730n 
    4.48000p  700.0000m  126.1730n 
    4.49000p  700.0000m  126.1730n 
    4.50000p  700.0000m  126.1730n 
    4.51000p  700.0000m  126.1730n 
    4.52000p  700.0000m  126.1730n 
    4.53000p  700.0000m  126.1730n 
    4.54000p  700.0000m  126.1730n 
    4.55000p  700.0000m  126.1730n 
    4.56000p  700.0000m  126.1730n 
    4.57000p  700.0000m  126.1730n 
    4.58000p  700.0000m  126.1730n 
    4.59000p  700.0000m  126.1730n 
    4.60000p  700.0000m  126.1730n 
    4.61000p  700.0000m  126.1730n 
    4.62000p  700.0000m  126.1730n 
    4.63000p  700.0000m  126.1730n 
    4.64000p  700.0000m  126.1730n 
    4.65000p  700.0000m  126.1730n 
    4.66000p  700.0000m  126.1730n 
    4.67000p  700.0000m  126.1730n 
    4.68000p  700.0000m  126.1730n 
    4.69000p  700.0000m  126.1730n 
    4.70000p  700.0000m  126.1730n 
    4.71000p  700.0000m  126.1730n 
    4.72000p  700.0000m  126.1730n 
    4.73000p  700.0000m  126.1730n 
    4.74000p  700.0000m  126.1730n 
    4.75000p  700.0000m  126.1730n 
    4.76000p  700.0000m  126.1730n 
    4.77000p  700.0000m  126.1730n 
    4.78000p  700.0000m  126.1730n 
    4.79000p  700.0000m  126.1730n 
    4.80000p  700.0000m  126.1730n 
    4.81000p  700.0000m  126.1730n 
    4.82000p  700.0000m  126.1730n 
    4.83000p  700.0000m  126.1730n 
    4.84000p  700.0000m  126.1730n 
    4.85000p  700.0000m  126.1730n 
    4.86000p  700.0000m  126.1730n 
    4.87000p  700.0000m  126.1730n 
    4.88000p  700.0000m  126.1730n 
    4.89000p  700.0000m  126.1730n 
    4.90000p  700.0000m  126.1730n 
    4.91000p  700.0000m  126.1730n 
    4.92000p  700.0000m  126.1730n 
    4.93000p  700.0000m  126.1730n 
    4.94000p  700.0000m  126.1730n 
    4.95000p  700.0000m  126.1730n 
    4.96000p  700.0000m  126.1730n 
    4.97000p  700.0000m  126.1730n 
    4.98000p  700.0000m  126.1730n 
    4.99000p  700.0000m  126.1730n 
    5.00000p  700.0000m  126.1730n 
    5.01000p  700.0000m  699.2377n 
    5.02000p  700.0000m    1.2723u 
    5.03000p  700.0000m    1.8454u 
    5.04000p  700.0000m    2.4184u 
    5.05000p  700.0000m    2.9915u 
    5.06000p  700.0000m    3.5646u 
    5.07000p  700.0000m    4.1376u 
    5.08000p  700.0000m    4.7107u 
    5.09000p  700.0000m    5.2838u 
    5.10000p  700.0000m    5.8568u 
    5.11000p  700.0000m    6.4299u 
    5.12000p  700.0000m    7.0029u 
    5.13000p  700.0000m    7.5760u 
    5.14000p  700.0001m    8.1491u 
    5.15000p  700.0001m    8.7221u 
    5.16000p  700.0001m    9.2952u 
    5.17000p  700.0001m    9.8683u 
    5.18000p  700.0001m   10.4413u 
    5.19000p  700.0001m   11.0144u 
    5.20000p  700.0001m   11.5875u 
    5.21000p  700.0001m   12.1605u 
    5.22000p  700.0001m   12.7336u 
    5.23000p  700.0001m   13.3067u 
    5.24000p  700.0001m   13.8797u 
    5.25000p  700.0001m   14.4528u 
    5.26000p  700.0001m   15.0259u 
    5.27000p  700.0001m   15.5989u 
    5.28000p  700.0001m   16.1720u 
    5.29000p  700.0001m   16.7450u 
    5.30000p  700.0001m   17.3181u 
    5.31000p  700.0001m   17.8912u 
    5.32000p  700.0001m   18.4642u 
    5.33000p  700.0001m   19.0373u 
    5.34000p  700.0002m   19.6104u 
    5.35000p  700.0002m   20.1834u 
    5.36000p  700.0002m   20.7565u 
    5.37000p  700.0002m   21.3296u 
    5.38000p  700.0002m   21.9026u 
    5.39000p  700.0002m   22.4757u 
    5.40000p  700.0002m   23.0488u 
    5.41000p  700.0002m   23.6218u 
    5.42000p  700.0002m   24.1949u 
    5.43000p  700.0002m   24.7680u 
    5.44000p  700.0002m   25.3410u 
    5.45000p  700.0002m   25.9141u 
    5.46000p  700.0002m   26.4872u 
    5.47000p  700.0002m   27.0602u 
    5.48000p  700.0002m   27.6333u 
    5.49000p  700.0002m   28.2063u 
    5.50000p  700.0002m   28.7794u 
    5.51000p  700.0002m   29.3525u 
    5.52000p  700.0002m   29.9255u 
    5.53000p  700.0002m   30.4986u 
    5.54000p  700.0003m   31.0717u 
    5.55000p  700.0003m   31.6447u 
    5.56000p  700.0003m   32.2178u 
    5.57000p  700.0003m   32.7909u 
    5.58000p  700.0003m   33.3639u 
    5.59000p  700.0003m   33.9370u 
    5.60000p  700.0003m   34.5101u 
    5.61000p  700.0003m   35.0831u 
    5.62000p  700.0003m   35.6562u 
    5.63000p  700.0003m   36.2293u 
    5.64000p  700.0003m   36.8023u 
    5.65000p  700.0003m   37.3754u 
    5.66000p  700.0003m   37.9484u 
    5.67000p  700.0003m   38.5215u 
    5.68000p  700.0003m   39.0946u 
    5.69000p  700.0003m   39.6676u 
    5.70000p  700.0003m   40.2407u 
    5.71000p  700.0003m   40.8138u 
    5.72000p  700.0003m   41.3868u 
    5.73000p  700.0003m   41.9599u 
    5.74000p  700.0004m   42.5330u 
    5.75000p  700.0004m   43.1060u 
    5.76000p  700.0004m   43.6791u 
    5.77000p  700.0004m   44.2522u 
    5.78000p  700.0004m   44.8252u 
    5.79000p  700.0004m   45.3983u 
    5.80000p  700.0004m   45.9714u 
    5.81000p  700.0004m   46.5444u 
    5.82000p  700.0004m   47.1175u 
    5.83000p  700.0004m   47.6905u 
    5.84000p  700.0004m   48.2636u 
    5.85000p  700.0004m   48.8367u 
    5.86000p  700.0004m   49.4097u 
    5.87000p  700.0004m   49.9828u 
    5.88000p  700.0004m   50.5559u 
    5.89000p  700.0004m   51.1289u 
    5.90000p  700.0004m   51.7020u 
    5.91000p  700.0004m   52.2751u 
    5.92000p  700.0004m   52.8481u 
    5.93000p  700.0004m   53.4212u 
    5.94000p  700.0005m   53.9943u 
    5.95000p  700.0005m   54.5673u 
    5.96000p  700.0005m   55.1404u 
    5.97000p  700.0005m   55.7135u 
    5.98000p  700.0005m   56.2865u 
    5.99000p  700.0005m   56.8596u 
    6.00000p  700.0005m   57.4326u 
    6.01000p  700.0005m   58.0057u 
    6.02000p  700.0005m   58.5788u 
    6.03000p  700.0005m   59.1518u 
    6.04000p  700.0005m   59.4974u 
    6.05000p  700.0005m   59.5237u 
    6.06000p  700.0005m   59.5499u 
    6.07000p  700.0005m   59.5761u 
    6.08000p  700.0004m   59.6024u 
    6.09000p  700.0004m   59.6286u 
    6.10000p  700.0004m   59.6548u 
    6.11000p  700.0004m   59.6811u 
    6.12000p  700.0004m   59.7073u 
    6.13000p  700.0004m   59.7336u 
    6.14000p  700.0004m   59.7598u 
    6.15000p  700.0004m   59.7860u 
    6.16000p  700.0004m   59.8123u 
    6.17000p  700.0003m   59.8385u 
    6.18000p  700.0003m   59.8647u 
    6.19000p  700.0003m   59.8910u 
    6.20000p  700.0003m   59.9172u 
    6.21000p  700.0003m   59.9435u 
    6.22000p  700.0003m   59.9697u 
    6.23000p  700.0003m   59.9959u 
    6.24000p  700.0003m   60.0222u 
    6.25000p  700.0003m   60.0484u 
    6.26000p  700.0003m   60.0746u 
    6.27000p  700.0002m   60.1009u 
    6.28000p  700.0002m   60.1271u 
    6.29000p  700.0002m   60.1534u 
    6.30000p  700.0002m   60.1796u 
    6.31000p  700.0002m   60.2058u 
    6.32000p  700.0002m   60.2321u 
    6.33000p  700.0002m   60.2583u 
    6.34000p  700.0002m   60.2845u 
    6.35000p  700.0002m   60.3108u 
    6.36000p  700.0001m   60.3370u 
    6.37000p  700.0001m   60.3633u 
    6.38000p  700.0001m   60.3895u 
    6.39000p  700.0001m   60.4157u 
    6.40000p  700.0001m   60.4420u 
    6.41000p  700.0001m   60.4682u 
    6.42000p  700.0001m   60.4944u 
    6.43000p  700.0001m   60.5207u 
    6.44000p  700.0001m   60.5469u 
    6.45000p  700.0000m   60.5732u 
    6.46000p  700.0000m   60.5994u 
    6.47000p  700.0000m   60.6256u 
    6.48000p  700.0000m   60.6519u 
    6.49000p  700.0000m   60.6781u 
    6.50000p  700.0000m   60.7043u 
    6.51000p  700.0000m   60.7306u 
    6.52000p  700.0000m   60.7568u 
    6.53000p  700.0000m   60.7831u 
    6.54000p  699.9999m   60.8093u 
    6.55000p  699.9999m   60.8355u 
    6.56000p  699.9999m   60.8618u 
    6.57000p  699.9999m   60.8880u 
    6.58000p  699.9999m   60.9142u 
    6.59000p  699.9999m   60.9405u 
    6.60000p  699.9999m   60.9667u 
    6.61000p  699.9999m   60.9929u 
    6.62000p  699.9999m   61.0192u 
    6.63000p  699.9998m   61.0454u 
    6.64000p  699.9998m   61.0717u 
    6.65000p  699.9998m   61.0979u 
    6.66000p  699.9998m   61.1241u 
    6.67000p  699.9998m   61.1504u 
    6.68000p  699.9998m   61.1766u 
    6.69000p  699.9998m   61.2028u 
    6.70000p  699.9998m   61.2291u 
    6.71000p  699.9998m   61.2553u 
    6.72000p  699.9997m   61.2816u 
    6.73000p  699.9997m   61.3078u 
    6.74000p  699.9997m   61.3340u 
    6.75000p  699.9997m   61.3603u 
    6.76000p  699.9997m   61.3865u 
    6.77000p  699.9997m   61.4127u 
    6.78000p  699.9997m   61.4390u 
    6.79000p  699.9997m   61.4209u 
    6.80000p  699.9997m   61.1465u 
    6.81000p  699.9997m   60.8722u 
    6.82000p  699.9997m   60.5979u 
    6.83000p  699.9997m   60.3235u 
    6.84000p  699.9997m   60.0492u 
    6.85000p  699.9997m   59.7748u 
    6.86000p  699.9997m   59.5005u 
    6.87000p  699.9997m   59.2262u 
    6.88000p  699.9997m   58.9518u 
    6.89000p  699.9997m   58.6775u 
    6.90000p  699.9997m   58.4031u 
    6.91000p  699.9997m   58.1288u 
    6.92000p  699.9997m   57.8545u 
    6.93000p  699.9997m   57.5801u 
    6.94000p  699.9997m   57.3058u 
    6.95000p  699.9997m   57.0314u 
    6.96000p  699.9997m   56.7571u 
    6.97000p  699.9997m   56.4828u 
    6.98000p  699.9997m   56.2084u 
    6.99000p  699.9997m   55.9341u 
    7.00000p  699.9997m   55.6597u 
    7.01000p  699.9997m   55.3854u 
    7.02000p  699.9997m   55.1111u 
    7.03000p  699.9997m   54.8367u 
    7.04000p  699.9997m   54.5624u 
    7.05000p  699.9997m   54.2880u 
    7.06000p  699.9997m   54.0137u 
    7.07000p  699.9997m   53.7394u 
    7.08000p  699.9997m   53.4650u 
    7.09000p  699.9997m   53.1907u 
    7.10000p  699.9997m   52.9163u 
    7.11000p  699.9997m   52.6420u 
    7.12000p  699.9997m   52.3677u 
    7.13000p  699.9997m   52.0933u 
    7.14000p  699.9997m   51.8190u 
    7.15000p  699.9997m   51.5446u 
    7.16000p  699.9997m   51.2703u 
    7.17000p  699.9997m   50.9960u 
    7.18000p  699.9997m   50.7216u 
    7.19000p  699.9997m   50.4473u 
    7.20000p  699.9997m   50.1730u 
    7.21000p  699.9997m   49.8986u 
    7.22000p  699.9997m   49.6243u 
    7.23000p  699.9997m   49.3499u 
    7.24000p  699.9997m   49.0756u 
    7.25000p  699.9996m   48.8013u 
    7.26000p  699.9996m   48.5269u 
    7.27000p  699.9996m   48.2526u 
    7.28000p  699.9996m   47.9782u 
    7.29000p  699.9996m   47.7039u 
    7.30000p  699.9996m   47.4296u 
    7.31000p  699.9996m   47.1552u 
    7.32000p  699.9996m   46.8809u 
    7.33000p  699.9996m   46.6065u 
    7.34000p  699.9996m   46.3322u 
    7.35000p  699.9996m   46.0579u 
    7.36000p  699.9996m   45.7835u 
    7.37000p  699.9996m   45.5092u 
    7.38000p  699.9996m   45.2348u 
    7.39000p  699.9996m   44.9605u 
    7.40000p  699.9996m   44.6862u 
    7.41000p  699.9996m   44.4118u 
    7.42000p  699.9996m   44.1375u 
    7.43000p  699.9996m   43.8631u 
    7.44000p  699.9996m   43.5888u 
    7.45000p  699.9996m   43.3145u 
    7.46000p  699.9996m   43.0401u 
    7.47000p  699.9996m   42.7658u 
    7.48000p  699.9996m   42.4914u 
    7.49000p  699.9996m   42.2171u 
    7.50000p  699.9996m   41.9428u 
    7.51000p  699.9996m   41.6684u 
    7.52000p  699.9996m   41.3941u 
    7.53000p  699.9996m   41.1197u 
    7.54000p  699.9996m   40.8454u 
    7.55000p  699.9996m   40.5711u 
    7.56000p  699.9996m   40.2967u 
    7.57000p  699.9996m   40.0224u 
    7.58000p  699.9996m   39.7480u 
    7.59000p  699.9996m   39.4737u 
    7.60000p  699.9996m   39.1994u 
    7.61000p  699.9996m   38.9250u 
    7.62000p  699.9996m   38.6507u 
    7.63000p  699.9996m   38.3764u 
    7.64000p  699.9996m   38.1020u 
    7.65000p  699.9996m   37.8277u 
    7.66000p  699.9996m   37.5533u 
    7.67000p  699.9996m   37.2790u 
    7.68000p  699.9996m   37.0047u 
    7.69000p  699.9996m   36.7303u 
    7.70000p  699.9996m   36.4560u 
    7.71000p  699.9996m   36.1816u 
    7.72000p  699.9996m   35.9073u 
    7.73000p  699.9996m   35.6330u 
    7.74000p  699.9996m   35.3586u 
    7.75000p  699.9996m   35.0843u 
    7.76000p  699.9996m   34.8099u 
    7.77000p  699.9996m   34.5356u 
    7.78000p  699.9996m   34.2613u 
    7.79000p  699.9996m   33.9869u 
    7.80000p  699.9996m   33.7126u 
    7.81000p  699.9996m   33.4382u 
    7.82000p  699.9996m   33.1639u 
    7.83000p  699.9996m   32.8896u 
    7.84000p  699.9996m   32.6152u 
    7.85000p  699.9996m   32.3409u 
    7.86000p  699.9996m   32.0665u 
    7.87000p  699.9996m   31.7922u 
    7.88000p  699.9996m   31.5179u 
    7.89000p  699.9996m   31.2435u 
    7.90000p  699.9996m   30.9692u 
    7.91000p  699.9996m   30.6948u 
    7.92000p  699.9996m   30.4205u 
    7.93000p  699.9996m   30.1462u 
    7.94000p  699.9996m   29.8718u 
    7.95000p  699.9996m   29.5975u 
    7.96000p  699.9996m   29.3231u 
    7.97000p  699.9996m   29.0488u 
    7.98000p  699.9996m   28.7745u 
    7.99000p  699.9996m   28.5001u 
    8.00000p  699.9996m   28.2258u 
    8.01000p  699.9996m   27.9514u 
    8.02000p  699.9996m   27.6771u 
    8.03000p  699.9996m   27.4028u 
    8.04000p  699.9996m   27.1284u 
    8.05000p  699.9996m   26.8541u 
    8.06000p  699.9996m   26.5798u 
    8.07000p  699.9996m   26.3054u 
    8.08000p  699.9996m   26.0311u 
    8.09000p  699.9996m   25.7567u 
    8.10000p  699.9996m   25.4824u 
    8.11000p  699.9996m   25.2081u 
    8.12000p  699.9996m   24.9337u 
    8.13000p  699.9996m   24.6594u 
    8.14000p  699.9996m   24.3850u 
    8.15000p  699.9996m   24.1107u 
    8.16000p  699.9996m   23.8364u 
    8.17000p  699.9996m   23.5620u 
    8.18000p  699.9996m   23.2877u 
    8.19000p  699.9996m   23.0133u 
    8.20000p  699.9996m   22.7390u 
    8.21000p  699.9996m   22.4647u 
    8.22000p  699.9996m   22.1903u 
    8.23000p  699.9996m   21.9160u 
    8.24000p  699.9996m   21.6416u 
    8.25000p  699.9996m   21.3673u 
    8.26000p  699.9996m   21.0930u 
    8.27000p  699.9996m   20.8186u 
    8.28000p  699.9996m   20.5443u 
    8.29000p  699.9996m   20.2699u 
    8.30000p  699.9996m   19.9956u 
    8.31000p  699.9996m   19.7213u 
    8.32000p  699.9996m   19.4469u 
    8.33000p  699.9996m   19.1726u 
    8.34000p  699.9996m   18.8982u 
    8.35000p  699.9996m   18.6239u 
    8.36000p  699.9996m   18.3496u 
    8.37000p  699.9996m   18.0752u 
    8.38000p  699.9996m   17.8009u 
    8.39000p  699.9996m   17.5265u 
    8.40000p  699.9996m   17.2522u 
    8.41000p  699.9996m   16.9779u 
    8.42000p  699.9996m   16.7035u 
    8.43000p  699.9996m   16.4292u 
    8.44000p  699.9996m   16.1548u 
    8.45000p  699.9996m   15.8805u 
    8.46000p  699.9996m   15.6062u 
    8.47000p  699.9996m   15.3318u 
    8.48000p  699.9996m   15.0575u 
    8.49000p  699.9996m   14.7832u 
    8.50000p  699.9996m   14.5088u 
    8.51000p  699.9996m   14.2345u 
    8.52000p  699.9996m   13.9601u 
    8.53000p  699.9996m   13.6858u 
    8.54000p  699.9996m   13.4115u 
    8.55000p  699.9996m   13.1371u 
    8.56000p  699.9996m   12.8628u 
    8.57000p  699.9996m   12.5884u 
    8.58000p  699.9996m   12.3141u 
    8.59000p  699.9996m   12.0398u 
    8.60000p  699.9996m   11.7654u 
    8.61000p  699.9996m   11.4911u 
    8.62000p  699.9996m   11.2167u 
    8.63000p  699.9996m   10.9424u 
    8.64000p  699.9996m   10.6681u 
    8.65000p  699.9996m   10.3937u 
    8.66000p  699.9996m   10.1194u 
    8.67000p  699.9996m    9.8450u 
    8.68000p  699.9996m    9.5707u 
    8.69000p  699.9996m    9.2964u 
    8.70000p  699.9996m    9.0220u 
    8.71000p  699.9996m    8.7477u 
    8.72000p  699.9996m    8.4733u 
    8.73000p  699.9996m    8.1990u 
    8.74000p  699.9996m    7.9247u 
    8.75000p  699.9996m    7.6503u 
    8.76000p  699.9996m    7.3760u 
    8.77000p  699.9996m    7.1016u 
    8.78000p  699.9996m    6.8273u 
    8.79000p  699.9996m    6.5530u 
    8.80000p  699.9996m    6.2786u 
    8.81000p  699.9996m    6.0043u 
    8.82000p  699.9996m    5.7299u 
    8.83000p  699.9996m    5.4556u 
    8.84000p  699.9996m    5.1813u 
    8.85000p  699.9996m    4.9069u 
    8.86000p  699.9996m    4.6326u 
    8.87000p  699.9996m    4.3582u 
    8.88000p  699.9996m    4.0839u 
    8.89000p  699.9996m    3.8096u 
    8.90000p  699.9996m    3.5352u 
    8.91000p  699.9996m    3.2609u 
    8.92000p  699.9996m    2.9866u 
    8.93000p  699.9996m    2.7122u 
    8.94000p  699.9996m    2.4379u 
    8.95000p  699.9996m    2.1635u 
    8.96000p  699.9996m    1.8892u 
    8.97000p  699.9996m    1.6149u 
    8.98000p  699.9996m    1.3405u 
    8.99000p  699.9996m    1.0662u 
    9.00000p  699.9996m  791.8361n 
    9.01000p  699.9996m  517.4966n 
    9.02000p  699.9996m  243.1571n 
    9.03000p  699.9996m  -31.1824n 
    9.04000p  699.9996m -305.5220n 
    9.05000p  699.9996m -579.8615n 
    9.06000p  699.9996m -854.2010n 
    9.07000p  699.9996m   -1.1285u 
    9.08000p  699.9996m   -1.4029u 
    9.09000p  699.9996m   -1.6768u 
    9.10000p  699.9996m   -1.6582u 
    9.11000p  699.9996m   -1.6396u 
    9.12000p  699.9996m   -1.6210u 
    9.13000p  699.9996m   -1.6024u 
    9.14000p  699.9996m   -1.5838u 
    9.15000p  699.9996m   -1.5652u 
    9.16000p  699.9996m   -1.5466u 
    9.17000p  699.9996m   -1.5281u 
    9.18000p  699.9996m   -1.5095u 
    9.19000p  699.9996m   -1.4909u 
    9.20000p  699.9996m   -1.4723u 
    9.21000p  699.9996m   -1.4537u 
    9.22000p  699.9996m   -1.4351u 
    9.23000p  699.9996m   -1.4165u 
    9.24000p  699.9996m   -1.3979u 
    9.25000p  699.9996m   -1.3794u 
    9.26000p  699.9996m   -1.3608u 
    9.27000p  699.9996m   -1.3422u 
    9.28000p  699.9996m   -1.3236u 
    9.29000p  699.9996m   -1.3050u 
    9.30000p  699.9996m   -1.2864u 
    9.31000p  699.9996m   -1.2678u 
    9.32000p  699.9996m   -1.2492u 
    9.33000p  699.9996m   -1.2307u 
    9.34000p  699.9996m   -1.2121u 
    9.35000p  699.9996m   -1.1935u 
    9.36000p  699.9996m   -1.1749u 
    9.37000p  699.9996m   -1.1563u 
    9.38000p  699.9996m   -1.1377u 
    9.39000p  699.9996m   -1.1191u 
    9.40000p  699.9996m   -1.1005u 
    9.41000p  699.9996m   -1.0820u 
    9.42000p  699.9996m   -1.0634u 
    9.43000p  699.9996m   -1.0448u 
    9.44000p  699.9996m   -1.0262u 
    9.45000p  699.9996m   -1.0076u 
    9.46000p  699.9996m -989.0155n 
    9.47000p  699.9997m -970.4280n 
    9.48000p  699.9997m -951.8404n 
    9.49000p  699.9997m -933.2529n 
    9.50000p  699.9997m -914.6654n 
    9.51000p  699.9997m -896.0778n 
    9.52000p  699.9997m -877.4903n 
    9.53000p  699.9997m -858.9028n 
    9.54000p  699.9997m -840.3152n 
    9.55000p  699.9997m -821.7277n 
    9.56000p  699.9997m -803.1402n 
    9.57000p  699.9997m -784.5526n 
    9.58000p  699.9997m -765.9651n 
    9.59000p  699.9997m -747.3776n 
    9.60000p  699.9997m -728.7900n 
    9.61000p  699.9997m -710.2025n 
    9.62000p  699.9997m -691.6150n 
    9.63000p  699.9997m -673.0275n 
    9.64000p  699.9997m -654.4399n 
    9.65000p  699.9997m -635.8524n 
    9.66000p  699.9997m -617.2649n 
    9.67000p  699.9997m -598.6773n 
    9.68000p  699.9997m -580.0898n 
    9.69000p  699.9997m -561.5023n 
    9.70000p  699.9997m -542.9147n 
    9.71000p  699.9997m -524.3272n 
    9.72000p  699.9997m -505.7397n 
    9.73000p  699.9997m -487.1521n 
    9.74000p  699.9997m -468.5646n 
    9.75000p  699.9997m -449.9771n 
    9.76000p  699.9997m -431.3895n 
    9.77000p  699.9997m -412.8020n 
    9.78000p  699.9997m -394.2145n 
    9.79000p  699.9997m -375.6269n 
    9.80000p  699.9997m -357.0394n 
    9.81000p  699.9997m -338.4519n 
    9.82000p  699.9997m -319.8643n 
    9.83000p  699.9997m -301.2768n 
    9.84000p  699.9997m -282.6893n 
    9.85000p  699.9997m -264.1017n 
    9.86000p  699.9997m -245.5142n 
    9.87000p  699.9997m -226.9267n 
    9.88000p  699.9997m -208.3391n 
    9.89000p  699.9997m -189.7516n 
    9.90000p  699.9997m -171.1641n 
    9.91000p  699.9997m -152.5765n 
    9.92000p  699.9997m -133.9890n 
    9.93000p  699.9997m -115.4015n 
    9.94000p  699.9997m  -96.8139n 
    9.95000p  699.9997m  -78.2264n 
    9.96000p  699.9997m  -59.6389n 
    9.97000p  699.9997m  -41.0513n 
    9.98000p  699.9997m  -22.4638n 
    9.99000p  699.9997m   -3.8763n 
   10.00000p  699.9997m   14.7113n 
   10.01000p  699.9997m   33.2988n 
   10.02000p  699.9997m   51.8863n 
   10.03000p  699.9997m   70.4739n 
   10.04000p  699.9997m   89.0614n 
   10.05000p  699.9997m  107.6489n 
   10.06000p  699.9997m  126.2365n 
   10.07000p  699.9997m  144.8240n 
   10.08000p  699.9998m  163.4115n 
   10.09000p  699.9998m  181.9991n 
   10.10000p  699.9998m  200.5866n 
   10.11000p  699.9998m  219.1741n 
   10.12000p  699.9998m  237.7617n 
   10.13000p  699.9998m  256.3492n 
   10.14000p  699.9998m  274.9367n 
   10.15000p  699.9998m  293.5243n 
   10.16000p  699.9998m  312.1118n 
   10.17000p  699.9998m  330.6993n 
   10.18000p  699.9998m  349.2869n 
   10.19000p  699.9998m  367.8744n 
   10.20000p  699.9998m  386.4619n 
   10.21000p  699.9998m  405.0495n 
   10.22000p  699.9998m  423.6370n 
   10.23000p  699.9998m  442.2245n 
   10.24000p  699.9998m  460.8121n 
   10.25000p  699.9998m  479.3996n 
   10.26000p  699.9998m  497.9871n 
   10.27000p  699.9998m  516.5747n 
   10.28000p  699.9998m  535.1622n 
   10.29000p  699.9998m  553.7497n 
   10.30000p  699.9998m  572.3373n 
   10.31000p  699.9998m  590.9248n 
   10.32000p  699.9998m  609.5123n 
   10.33000p  699.9998m  628.0999n 
   10.34000p  699.9998m  646.6874n 
   10.35000p  699.9998m  665.2749n 
   10.36000p  699.9998m  683.8625n 
   10.37000p  699.9998m  702.4500n 
   10.38000p  699.9998m  721.0375n 
   10.39000p  699.9998m  739.6250n 
   10.40000p  699.9998m  758.2126n 
   10.41000p  699.9998m  776.8001n 
   10.42000p  699.9998m  795.3876n 
   10.43000p  699.9998m  813.9752n 
   10.44000p  699.9998m  832.5627n 
   10.45000p  699.9998m  851.1502n 
   10.46000p  699.9998m  869.7378n 
   10.47000p  699.9998m  888.3253n 
   10.48000p  699.9998m  906.9128n 
   10.49000p  699.9998m  925.5004n 
   10.50000p  699.9998m  944.0879n 
   10.51000p  699.9998m  962.6754n 
   10.52000p  699.9998m  981.2630n 
   10.53000p  699.9998m  999.8505n 
   10.54000p  699.9998m    1.0184u 
   10.55000p  699.9998m    1.0370u 
   10.56000p  699.9998m    1.0556u 
   10.57000p  699.9998m    1.0742u 
   10.58000p  699.9998m    1.0928u 
   10.59000p  699.9998m    1.1114u 
   10.60000p  699.9998m    1.1300u 
   10.61000p  699.9998m    1.1486u 
   10.62000p  699.9998m    1.1671u 
   10.63000p  699.9998m    1.1857u 
   10.64000p  699.9998m    1.2043u 
   10.65000p  699.9998m    1.2229u 
   10.66000p  699.9998m    1.2415u 
   10.67000p  699.9998m    1.2601u 
   10.68000p  699.9998m    1.2787u 
   10.69000p  699.9999m    1.2973u 
   10.70000p  699.9999m    1.3158u 
   10.71000p  699.9999m    1.3344u 
   10.72000p  699.9999m    1.3530u 
   10.73000p  699.9999m    1.3716u 
   10.74000p  699.9999m    1.3902u 
   10.75000p  699.9999m    1.4088u 
   10.76000p  699.9999m    1.4274u 
   10.77000p  699.9999m    1.4460u 
   10.78000p  699.9999m    1.4645u 
   10.79000p  699.9999m    1.4831u 
   10.80000p  699.9999m    1.5017u 
   10.81000p  699.9999m    1.5203u 
   10.82000p  699.9999m    1.5389u 
   10.83000p  699.9999m    1.5575u 
   10.84000p  699.9999m    1.5761u 
   10.85000p  699.9999m    1.5947u 
   10.86000p  699.9999m    1.6132u 
   10.87000p  699.9999m    1.6318u 
   10.88000p  699.9999m    1.6504u 
   10.89000p  699.9999m    1.6690u 
   10.90000p  699.9999m    1.6876u 
   10.91000p  699.9999m    1.7062u 
   10.92000p  699.9999m    1.7248u 
   10.93000p  699.9999m    1.7434u 
   10.94000p  699.9999m    1.7619u 
   10.95000p  699.9999m    1.7805u 
   10.96000p  699.9999m    1.7991u 
   10.97000p  699.9999m    1.8177u 
   10.98000p  699.9999m    1.8363u 
   10.99000p  699.9999m    1.8549u 
   11.00000p  699.9999m    1.8735u 
   11.01000p  699.9999m    1.8921u 
   11.02000p  699.9999m    1.9106u 
   11.03000p  699.9999m    1.9292u 
   11.04000p  699.9999m    1.9478u 
   11.05000p  699.9999m    1.9664u 
   11.06000p  699.9999m    1.9850u 
   11.07000p  699.9999m    2.0036u 
   11.08000p  699.9999m    2.0222u 
   11.09000p  699.9999m    2.0408u 
   11.10000p  699.9999m    2.0593u 
   11.11000p  699.9999m    2.0779u 
   11.12000p  699.9999m    2.0965u 
   11.13000p  699.9999m    2.1151u 
   11.14000p  699.9999m    2.1337u 
   11.15000p  699.9999m    2.1523u 
   11.16000p  699.9999m    2.1709u 
   11.17000p  699.9999m    2.1895u 
   11.18000p  699.9999m    2.2080u 
   11.19000p  699.9999m    2.2266u 
   11.20000p  699.9999m    2.2452u 
   11.21000p  699.9999m    2.2638u 
   11.22000p  699.9999m    2.2824u 
   11.23000p  699.9999m    2.3010u 
   11.24000p  699.9999m    2.3196u 
   11.25000p  699.9999m    2.3382u 
   11.26000p  699.9999m    2.3567u 
   11.27000p  699.9999m    2.3753u 
   11.28000p  699.9999m    2.3939u 
   11.29000p  699.9999m    2.4125u 
   11.30000p  700.0000m    2.4311u 
   11.31000p  700.0000m    2.4497u 
   11.32000p  700.0000m    2.4683u 
   11.33000p  700.0000m    2.4869u 
   11.34000p  700.0000m    2.5054u 
   11.35000p  700.0000m    2.5240u 
   11.36000p  700.0000m    2.5426u 
   11.37000p  700.0000m    2.5612u 
   11.38000p  700.0000m    2.5798u 
   11.39000p  700.0000m    2.5984u 
   11.40000p  700.0000m    2.6170u 
   11.41000p  700.0000m    2.6356u 
   11.42000p  700.0000m    2.6541u 
   11.43000p  700.0000m    2.6727u 
   11.44000p  700.0000m    2.6913u 
   11.45000p  700.0000m    2.7099u 
   11.46000p  700.0000m    2.7285u 
   11.47000p  700.0000m    2.7471u 
   11.48000p  700.0000m    2.7657u 
   11.49000p  700.0000m    2.7843u 
   11.50000p  700.0000m    2.8028u 
   11.51000p  700.0000m    2.8214u 
   11.52000p  700.0000m    2.8400u 
   11.53000p  700.0000m    2.8586u 
   11.54000p  700.0000m    2.8772u 
   11.55000p  700.0000m    2.8958u 
   11.56000p  700.0000m    2.9144u 
   11.57000p  700.0000m    2.9330u 
   11.58000p  700.0000m    2.9515u 
   11.59000p  700.0000m    2.9701u 
   11.60000p  700.0000m    2.9887u 
   11.61000p  700.0000m    3.0073u 
   11.62000p  700.0000m    3.0259u 
   11.63000p  700.0000m    3.0445u 
   11.64000p  700.0000m    3.0631u 
   11.65000p  700.0000m    3.0817u 
   11.66000p  700.0000m    3.1002u 
   11.67000p  700.0000m    3.1188u 
   11.68000p  700.0000m    3.1374u 
   11.69000p  700.0000m    3.1560u 
   11.70000p  700.0000m    3.1746u 
   11.71000p  700.0000m    3.1932u 
   11.72000p  700.0000m    3.2118u 
   11.73000p  700.0000m    3.2304u 
   11.74000p  700.0000m    3.2489u 
   11.75000p  700.0000m    3.2675u 
   11.76000p  700.0000m    3.2861u 
   11.77000p  700.0000m    3.3047u 
   11.78000p  700.0000m    3.3233u 
   11.79000p  700.0000m    3.3419u 
   11.80000p  700.0000m    3.3605u 
   11.81000p  700.0000m    3.3791u 
   11.82000p  700.0000m    3.3976u 
   11.83000p  700.0000m    3.4162u 
   11.84000p  700.0000m    3.4348u 
   11.85000p  700.0000m    3.4534u 
   11.86000p  700.0000m    3.4720u 
   11.87000p  700.0000m    3.4906u 
   11.88000p  700.0000m    3.5092u 
   11.89000p  700.0000m    3.5278u 
   11.90000p  700.0000m    3.5463u 
   11.91000p  700.0001m    3.5649u 
   11.92000p  700.0001m    3.5835u 
   11.93000p  700.0001m    3.6021u 
   11.94000p  700.0001m    3.6207u 
   11.95000p  700.0001m    3.6393u 
   11.96000p  700.0001m    3.6579u 
   11.97000p  700.0001m    3.6765u 
   11.98000p  700.0001m    3.6950u 
   11.99000p  700.0001m    3.7136u 
   12.00000p  700.0001m    3.7322u 
   12.01000p  700.0001m    3.7508u 
   12.02000p  700.0001m    3.7694u 
   12.03000p  700.0001m    3.7880u 
   12.04000p  700.0001m    3.8066u 
   12.05000p  700.0001m    3.8252u 
   12.06000p  700.0001m    3.8437u 
   12.07000p  700.0001m    3.8623u 
   12.08000p  700.0001m    3.8809u 
   12.09000p  700.0001m    3.8995u 
   12.10000p  700.0001m    3.9181u 
   12.11000p  700.0001m    3.9367u 
   12.12000p  700.0001m    3.9553u 
   12.13000p  700.0001m    3.9739u 
   12.14000p  700.0001m    3.9924u 
   12.15000p  700.0001m    4.0110u 
   12.16000p  700.0001m    4.0296u 
   12.17000p  700.0001m    4.0482u 
   12.18000p  700.0001m    4.0668u 
   12.19000p  700.0001m    4.0854u 
   12.20000p  700.0001m    4.1040u 
   12.21000p  700.0001m    4.1226u 
   12.22000p  700.0001m    4.1411u 
   12.23000p  700.0001m    4.1597u 
   12.24000p  700.0001m    4.1783u 
   12.25000p  700.0001m    4.1969u 
   12.26000p  700.0001m    4.2155u 
   12.27000p  700.0001m    4.2341u 
   12.28000p  700.0001m    4.2527u 
   12.29000p  700.0001m    4.2713u 
   12.30000p  700.0001m    4.2898u 
   12.31000p  700.0001m    4.3084u 
   12.32000p  700.0001m    4.3270u 
   12.33000p  700.0001m    4.3456u 
   12.34000p  700.0001m    4.3642u 
   12.35000p  700.0001m    4.3828u 
   12.36000p  700.0001m    4.4014u 
   12.37000p  700.0001m    4.4200u 
   12.38000p  700.0001m    4.4385u 
   12.39000p  700.0001m    4.4571u 
   12.40000p  700.0001m    4.4757u 
   12.41000p  700.0001m    4.4943u 
   12.42000p  700.0001m    4.5129u 
   12.43000p  700.0001m    4.5315u 
   12.44000p  700.0001m    4.5501u 
   12.45000p  700.0001m    4.5687u 
   12.46000p  700.0001m    4.5872u 
   12.47000p  700.0001m    4.6058u 
   12.48000p  700.0001m    4.6244u 
   12.49000p  700.0001m    4.6430u 
   12.50000p  700.0001m    4.6616u 
   12.51000p  700.0001m    4.6802u 
   12.52000p  700.0002m    4.6988u 
   12.53000p  700.0002m    4.7174u 
   12.54000p  700.0002m    4.7359u 
   12.55000p  700.0002m    4.7545u 
   12.56000p  700.0002m    4.7731u 
   12.57000p  700.0002m    4.7917u 
   12.58000p  700.0002m    4.8103u 
   12.59000p  700.0002m    4.8289u 
   12.60000p  700.0002m    4.8475u 
   12.61000p  700.0002m    4.8661u 
   12.62000p  700.0002m    4.8846u 
   12.63000p  700.0002m    4.9032u 
   12.64000p  700.0002m    4.9218u 
   12.65000p  700.0002m    4.9404u 
   12.66000p  700.0002m    4.9590u 
   12.67000p  700.0002m    4.9776u 
   12.68000p  700.0002m    4.9962u 
   12.69000p  700.0002m    5.0148u 
   12.70000p  700.0002m    5.0333u 
   12.71000p  700.0002m    5.0519u 
   12.72000p  700.0002m    5.0705u 
   12.73000p  700.0002m    5.0891u 
   12.74000p  700.0002m    5.1077u 
   12.75000p  700.0002m    5.1263u 
   12.76000p  700.0002m    5.1449u 
   12.77000p  700.0002m    5.1635u 
   12.78000p  700.0002m    5.1820u 
   12.79000p  700.0002m    5.2006u 
   12.80000p  700.0002m    5.2192u 
   12.81000p  700.0002m    5.2378u 
   12.82000p  700.0002m    5.2564u 
   12.83000p  700.0002m    5.2750u 
   12.84000p  700.0002m    5.2936u 
   12.85000p  700.0002m    5.3122u 
   12.86000p  700.0002m    5.3307u 
   12.87000p  700.0002m    5.3493u 
   12.88000p  700.0002m    5.3679u 
   12.89000p  700.0002m    5.3865u 
   12.90000p  700.0002m    5.4051u 
   12.91000p  700.0002m    5.4237u 
   12.92000p  700.0002m    5.4423u 
   12.93000p  700.0002m    5.4609u 
   12.94000p  700.0002m    5.4794u 
   12.95000p  700.0002m    5.4980u 
   12.96000p  700.0002m    5.5166u 
   12.97000p  700.0002m    5.5352u 
   12.98000p  700.0002m    5.5538u 
   12.99000p  700.0002m    5.5724u 
   13.00000p  700.0002m    5.5910u 
   13.01000p  700.0002m    5.6096u 
   13.02000p  700.0002m    5.6281u 
   13.03000p  700.0002m    5.6467u 
   13.04000p  700.0002m    5.6653u 
   13.05000p  700.0002m    5.6839u 
   13.06000p  700.0002m    5.7025u 
   13.07000p  700.0002m    5.7211u 
   13.08000p  700.0002m    5.7397u 
   13.09000p  700.0002m    5.7583u 
   13.10000p  700.0002m    5.7768u 
   13.11000p  700.0002m    5.7954u 
   13.12000p  700.0003m    5.8140u 
   13.13000p  700.0003m    5.8326u 
   13.14000p  700.0003m    5.8512u 
   13.15000p  700.0003m    5.8698u 
   13.16000p  700.0003m    5.8884u 
   13.17000p  700.0003m    5.9070u 
   13.18000p  700.0003m    5.9255u 
   13.19000p  700.0003m    5.9441u 
   13.20000p  700.0003m    5.9627u 
   13.21000p  700.0003m    5.9813u 
   13.22000p  700.0003m    5.9999u 
   13.23000p  700.0003m    6.0185u 
   13.24000p  700.0003m    6.0371u 
   13.25000p  700.0003m    6.0557u 
   13.26000p  700.0003m    6.0742u 
   13.27000p  700.0003m    6.0928u 
   13.28000p  700.0003m    6.1114u 
   13.29000p  700.0003m    6.1300u 
   13.30000p  700.0003m    6.1486u 
   13.31000p  700.0003m    6.1672u 
   13.32000p  700.0003m    6.1858u 
   13.33000p  700.0003m    6.2044u 
   13.34000p  700.0003m    6.2229u 
   13.35000p  700.0003m    6.2415u 
   13.36000p  700.0003m    6.2601u 
   13.37000p  700.0003m    6.2787u 
   13.38000p  700.0003m    6.2973u 
   13.39000p  700.0003m    6.3159u 
   13.40000p  700.0003m    6.3345u 
   13.41000p  700.0003m    6.3531u 
   13.42000p  700.0003m    6.3716u 
   13.43000p  700.0003m    6.3902u 
   13.44000p  700.0003m    6.4088u 
   13.45000p  700.0003m    6.4274u 
   13.46000p  700.0003m    6.4460u 
   13.47000p  700.0003m    6.4646u 
   13.48000p  700.0003m    6.4832u 
   13.49000p  700.0003m    6.5018u 
   13.50000p  700.0003m    6.5203u 
   13.51000p  700.0003m    6.5389u 
   13.52000p  700.0003m    6.5575u 
   13.53000p  700.0003m    6.5761u 
   13.54000p  700.0003m    6.5947u 
   13.55000p  700.0003m    6.6133u 
   13.56000p  700.0003m    6.6319u 
   13.57000p  700.0003m    6.6505u 
   13.58000p  700.0003m    6.6690u 
   13.59000p  700.0003m    6.6876u 
   13.60000p  700.0003m    6.7062u 
   13.61000p  700.0003m    6.7248u 
   13.62000p  700.0003m    6.7434u 
   13.63000p  700.0003m    6.7620u 
   13.64000p  700.0003m    6.7806u 
   13.65000p  700.0003m    6.7992u 
   13.66000p  700.0003m    6.8177u 
   13.67000p  700.0003m    6.8363u 
   13.68000p  700.0003m    6.8549u 
   13.69000p  700.0003m    6.8735u 
   13.70000p  700.0003m    6.8921u 
   13.71000p  700.0003m    6.9107u 
   13.72000p  700.0003m    6.9293u 
   13.73000p  700.0004m    6.9479u 
   13.74000p  700.0004m    6.9664u 
   13.75000p  700.0004m    6.9850u 
   13.76000p  700.0004m    7.0036u 
   13.77000p  700.0004m    7.0222u 
   13.78000p  700.0004m    7.0408u 
   13.79000p  700.0004m    7.0594u 
   13.80000p  700.0004m    7.0780u 
   13.81000p  700.0004m    7.0966u 
   13.82000p  700.0004m    7.1151u 
   13.83000p  700.0004m    7.1337u 
   13.84000p  700.0004m    7.1523u 
   13.85000p  700.0004m    7.1709u 
   13.86000p  700.0004m    7.1895u 
   13.87000p  700.0004m    7.2081u 
   13.88000p  700.0004m    7.2267u 
   13.89000p  700.0004m    7.2453u 
   13.90000p  700.0004m    7.2638u 
   13.91000p  700.0004m    7.2824u 
   13.92000p  700.0004m    7.3010u 
   13.93000p  700.0004m    7.3196u 
   13.94000p  700.0004m    7.3382u 
   13.95000p  700.0004m    7.3568u 
   13.96000p  700.0004m    7.3754u 
   13.97000p  700.0004m    7.3940u 
   13.98000p  700.0004m    7.4125u 
   13.99000p  700.0004m    7.4311u 
   14.00000p  700.0004m    7.4497u 
   14.01000p  700.0004m    7.4683u 
   14.02000p  700.0004m    7.4869u 
   14.03000p  700.0004m    7.5055u 
   14.04000p  700.0004m    7.5241u 
   14.05000p  700.0004m    7.5427u 
   14.06000p  700.0004m    7.5612u 
   14.07000p  700.0004m    7.5798u 
   14.08000p  700.0004m    7.5984u 
   14.09000p  700.0004m    7.6170u 
   14.10000p  700.0004m    7.6356u 
   14.11000p  700.0004m    7.6542u 
   14.12000p  700.0004m    7.6728u 
   14.13000p  700.0004m    7.6914u 
   14.14000p  700.0004m    7.7099u 
   14.15000p  700.0004m    7.7285u 
   14.16000p  700.0004m    7.7471u 
   14.17000p  700.0004m    7.7657u 
   14.18000p  700.0004m    7.7843u 
   14.19000p  700.0004m    7.8029u 
   14.20000p  700.0004m    7.8215u 
   14.21000p  700.0004m    7.8401u 
   14.22000p  700.0004m    7.8587u 
   14.23000p  700.0004m    7.8772u 
   14.24000p  700.0004m    7.8958u 
   14.25000p  700.0004m    7.9144u 
   14.26000p  700.0004m    7.9330u 
   14.27000p  700.0004m    7.9516u 
   14.28000p  700.0004m    7.9702u 
   14.29000p  700.0004m    7.9888u 
   14.30000p  700.0004m    8.0074u 
   14.31000p  700.0004m    8.0259u 
   14.32000p  700.0004m    8.0445u 
   14.33000p  700.0004m    8.0631u 
   14.34000p  700.0005m    8.0817u 
   14.35000p  700.0005m    8.1003u 
   14.36000p  700.0005m    8.1189u 
   14.37000p  700.0005m    8.1375u 
   14.38000p  700.0005m    8.1561u 
   14.39000p  700.0005m    8.1746u 
   14.40000p  700.0005m    8.1932u 
   14.41000p  700.0005m    8.2118u 
   14.42000p  700.0005m    8.2304u 
   14.43000p  700.0005m    8.2490u 
   14.44000p  700.0005m    8.2676u 
   14.45000p  700.0005m    8.2862u 
   14.46000p  700.0005m    8.3048u 
   14.47000p  700.0005m    8.3233u 
   14.48000p  700.0005m    8.3434u 
   14.49000p  700.0005m    8.3678u 
   14.50000p  700.0005m    8.3921u 
   14.51000p  700.0005m    8.4165u 
   14.52000p  700.0005m    8.4409u 
   14.53000p  700.0005m    8.4652u 
   14.54000p  700.0005m    8.4896u 
   14.55000p  700.0005m    8.5139u 
   14.56000p  700.0005m    8.5383u 
   14.57000p  700.0005m    8.5626u 
   14.58000p  700.0005m    8.5870u 
   14.59000p  700.0005m    8.6113u 
   14.60000p  700.0005m    8.6357u 
   14.61000p  700.0005m    8.6600u 
   14.62000p  700.0004m    8.6844u 
   14.63000p  700.0004m    8.7088u 
   14.64000p  700.0004m    8.7331u 
   14.65000p  700.0004m    8.7575u 
   14.66000p  700.0004m    8.7818u 
   14.67000p  700.0004m    8.8062u 
   14.68000p  700.0004m    8.8305u 
   14.69000p  700.0004m    8.8549u 
   14.70000p  700.0004m    8.8792u 
   14.71000p  700.0004m    8.9036u 
   14.72000p  700.0004m    8.9279u 
   14.73000p  700.0004m    8.9523u 
   14.74000p  700.0004m    8.9766u 
   14.75000p  700.0004m    9.0010u 
   14.76000p  700.0004m    9.0254u 
   14.77000p  700.0004m    9.0497u 
   14.78000p  700.0004m    9.0741u 
   14.79000p  700.0004m    9.0984u 
   14.80000p  700.0004m    9.1228u 
   14.81000p  700.0004m    9.1471u 
   14.82000p  700.0004m    9.1715u 
   14.83000p  700.0004m    9.1958u 
   14.84000p  700.0004m    9.2202u 
   14.85000p  700.0004m    9.2445u 
   14.86000p  700.0004m    9.2689u 
   14.87000p  700.0004m    9.2933u 
   14.88000p  700.0004m    9.3176u 
   14.89000p  700.0004m    9.3420u 
   14.90000p  700.0004m    9.3663u 
   14.91000p  700.0004m    9.3907u 
   14.92000p  700.0004m    9.4150u 
   14.93000p  700.0004m    9.4394u 
   14.94000p  700.0004m    9.4637u 
   14.95000p  700.0004m    9.4881u 
   14.96000p  700.0004m    9.5124u 
   14.97000p  700.0004m    9.5368u 
   14.98000p  700.0004m    9.5611u 
   14.99000p  700.0004m    9.5855u 
   15.00000p  700.0004m    9.6099u 
   15.01000p  700.0004m    9.6342u 
   15.02000p  700.0004m    9.6586u 
   15.03000p  700.0004m    9.6829u 
   15.04000p  700.0004m    9.7073u 
   15.05000p  700.0004m    9.7316u 
   15.06000p  700.0004m    9.7560u 
   15.07000p  700.0004m    9.7803u 
   15.08000p  700.0004m    9.8047u 
   15.09000p  700.0004m    9.8290u 
   15.10000p  700.0004m    9.8534u 
   15.11000p  700.0004m    9.8778u 
   15.12000p  700.0004m    9.9021u 
   15.13000p  700.0004m    9.9265u 
   15.14000p  700.0004m    9.9508u 
   15.15000p  700.0004m    9.9752u 
   15.16000p  700.0004m    9.9995u 
   15.17000p  700.0004m   10.0239u 
   15.18000p  700.0004m   10.0482u 
   15.19000p  700.0004m   10.0726u 
   15.20000p  700.0004m   10.0969u 
   15.21000p  700.0004m   10.1213u 
   15.22000p  700.0003m   10.1456u 
   15.23000p  700.0003m   10.1700u 
   15.24000p  700.0003m   10.1944u 
   15.25000p  700.0003m   10.2187u 
   15.26000p  700.0003m   10.2431u 
   15.27000p  700.0003m   10.2674u 
   15.28000p  700.0003m   10.2918u 
   15.29000p  700.0003m   10.3161u 
   15.30000p  700.0003m   10.3405u 
   15.31000p  700.0003m   10.3648u 
   15.32000p  700.0003m   10.3892u 
   15.33000p  700.0003m   10.4135u 
   15.34000p  700.0003m   10.4379u 
   15.35000p  700.0003m   10.4623u 
   15.36000p  700.0003m   10.4866u 
   15.37000p  700.0003m   10.5110u 
   15.38000p  700.0003m   10.5353u 
   15.39000p  700.0003m   10.5597u 
   15.40000p  700.0003m   10.5840u 
   15.41000p  700.0003m   10.6084u 
   15.42000p  700.0003m   10.6327u 
   15.43000p  700.0003m   10.6571u 
   15.44000p  700.0003m   10.6814u 
   15.45000p  700.0003m   10.7058u 
   15.46000p  700.0003m   10.7301u 
   15.47000p  700.0003m   10.7545u 
   15.48000p  700.0003m   10.7789u 
   15.49000p  700.0003m   10.8032u 
   15.50000p  700.0003m   10.8276u 
   15.51000p  700.0003m   10.8519u 
   15.52000p  700.0003m   10.8763u 
   15.53000p  700.0003m   10.9006u 
   15.54000p  700.0003m   10.9250u 
   15.55000p  700.0003m   10.9493u 
   15.56000p  700.0003m   10.9737u 
   15.57000p  700.0003m   10.9980u 
   15.58000p  700.0003m   11.0224u 
   15.59000p  700.0003m   11.0468u 
   15.60000p  700.0003m   11.0711u 
   15.61000p  700.0003m   11.0955u 
   15.62000p  700.0003m   11.1198u 
   15.63000p  700.0003m   11.1442u 
   15.64000p  700.0003m   11.1685u 
   15.65000p  700.0003m   11.1929u 
   15.66000p  700.0003m   11.2172u 
   15.67000p  700.0003m   11.2416u 
   15.68000p  700.0003m   11.2659u 
   15.69000p  700.0003m   11.2903u 
   15.70000p  700.0003m   11.3146u 
   15.71000p  700.0003m   11.3390u 
   15.72000p  700.0003m   11.3634u 
   15.73000p  700.0003m   11.3877u 
   15.74000p  700.0003m   11.4121u 
   15.75000p  700.0003m   11.4364u 
   15.76000p  700.0003m   11.4608u 
   15.77000p  700.0003m   11.4851u 
   15.78000p  700.0003m   11.5095u 
   15.79000p  700.0003m   11.5338u 
   15.80000p  700.0003m   11.5582u 
   15.81000p  700.0003m   11.5825u 
   15.82000p  700.0002m   11.6069u 
   15.83000p  700.0002m   11.6313u 
   15.84000p  700.0002m   11.6556u 
   15.85000p  700.0002m   11.6800u 
   15.86000p  700.0002m   11.7043u 
   15.87000p  700.0002m   11.7287u 
   15.88000p  700.0002m   11.7530u 
   15.89000p  700.0002m   11.7774u 
   15.90000p  700.0002m   11.8017u 
   15.91000p  700.0002m   11.8261u 
   15.92000p  700.0002m   11.8504u 
   15.93000p  700.0002m   11.8748u 
   15.94000p  700.0002m   11.8991u 
   15.95000p  700.0002m   11.9235u 
   15.96000p  700.0002m   11.9479u 
   15.97000p  700.0002m   11.9722u 
   15.98000p  700.0002m   11.9966u 
   15.99000p  700.0002m   12.0209u 
   16.00000p  700.0002m   12.0453u 
   16.01000p  700.0002m   12.0696u 
   16.02000p  700.0002m   12.0940u 
   16.03000p  700.0002m   12.1183u 
   16.04000p  700.0002m   12.1427u 
   16.05000p  700.0002m   12.1670u 
   16.06000p  700.0002m   12.1914u 
   16.07000p  700.0002m   12.2158u 
   16.08000p  700.0002m   12.2401u 
   16.09000p  700.0002m   12.2645u 
   16.10000p  700.0002m   12.2888u 
   16.11000p  700.0002m   12.3132u 
   16.12000p  700.0002m   12.3375u 
   16.13000p  700.0002m   12.3619u 
   16.14000p  700.0002m   12.3862u 
   16.15000p  700.0002m   12.4106u 
   16.16000p  700.0002m   12.4349u 
   16.17000p  700.0002m   12.4593u 
   16.18000p  700.0002m   12.4836u 
   16.19000p  700.0002m   12.5080u 
   16.20000p  700.0002m   12.5324u 
   16.21000p  700.0002m   12.5567u 
   16.22000p  700.0002m   12.5811u 
   16.23000p  700.0002m   12.6054u 
   16.24000p  700.0002m   12.6298u 
   16.25000p  700.0002m   12.6541u 
   16.26000p  700.0002m   12.6785u 
   16.27000p  700.0002m   12.7028u 
   16.28000p  700.0002m   12.7272u 
   16.29000p  700.0002m   12.7515u 
   16.30000p  700.0002m   12.7759u 
   16.31000p  700.0002m   12.8003u 
   16.32000p  700.0002m   12.8246u 
   16.33000p  700.0002m   12.8490u 
   16.34000p  700.0002m   12.8733u 
   16.35000p  700.0002m   12.8977u 
   16.36000p  700.0002m   12.9220u 
   16.37000p  700.0002m   12.9464u 
   16.38000p  700.0002m   12.9707u 
   16.39000p  700.0002m   12.9951u 
   16.40000p  700.0002m   13.0194u 
   16.41000p  700.0002m   13.0438u 
   16.42000p  700.0001m   13.0682u 
   16.43000p  700.0001m   13.0925u 
   16.44000p  700.0001m   13.1169u 
   16.45000p  700.0001m   13.1412u 
   16.46000p  700.0001m   13.1656u 
   16.47000p  700.0001m   13.1899u 
   16.48000p  700.0001m   13.2143u 
   16.49000p  700.0001m   13.2386u 
   16.50000p  700.0001m   13.2630u 
   16.51000p  700.0001m   13.2873u 
   16.52000p  700.0001m   13.3117u 
   16.53000p  700.0001m   13.3360u 
   16.54000p  700.0001m   13.3604u 
   16.55000p  700.0001m   13.3848u 
   16.56000p  700.0001m   13.4091u 
   16.57000p  700.0001m   13.4335u 
   16.58000p  700.0001m   13.4578u 
   16.59000p  700.0001m   13.4822u 
   16.60000p  700.0001m   13.5065u 
   16.61000p  700.0001m   13.5309u 
   16.62000p  700.0001m   13.5552u 
   16.63000p  700.0001m   13.5796u 
   16.64000p  700.0001m   13.6039u 
   16.65000p  700.0001m   13.6283u 
   16.66000p  700.0001m   13.6527u 
   16.67000p  700.0001m   13.6770u 
   16.68000p  700.0001m   13.7014u 
   16.69000p  700.0001m   13.7257u 
   16.70000p  700.0001m   13.7501u 
   16.71000p  700.0001m   13.7744u 
   16.72000p  700.0001m   13.7988u 
   16.73000p  700.0001m   13.8231u 
   16.74000p  700.0001m   13.8475u 
   16.75000p  700.0001m   13.8718u 
   16.76000p  700.0001m   13.8962u 
   16.77000p  700.0001m   13.9205u 
   16.78000p  700.0001m   13.9449u 
   16.79000p  700.0001m   13.9693u 
   16.80000p  700.0001m   13.9936u 
   16.81000p  700.0001m   14.0180u 
   16.82000p  700.0001m   14.0423u 
   16.83000p  700.0001m   14.0667u 
   16.84000p  700.0001m   14.0910u 
   16.85000p  700.0001m   14.1154u 
   16.86000p  700.0001m   14.1397u 
   16.87000p  700.0001m   14.1641u 
   16.88000p  700.0001m   14.1884u 
   16.89000p  700.0001m   14.2128u 
   16.90000p  700.0001m   14.2372u 
   16.91000p  700.0001m   14.2615u 
   16.92000p  700.0001m   14.2859u 
   16.93000p  700.0001m   14.3102u 
   16.94000p  700.0001m   14.3346u 
   16.95000p  700.0001m   14.3589u 
   16.96000p  700.0001m   14.3833u 
   16.97000p  700.0001m   14.4076u 
   16.98000p  700.0001m   14.4320u 
   16.99000p  700.0001m   14.4563u 
   17.00000p  700.0001m   14.4807u 
   17.01000p  700.0001m   14.5050u 
   17.02000p  700.0000m   14.5294u 
   17.03000p  700.0000m   14.5538u 
   17.04000p  700.0000m   14.5781u 
   17.05000p  700.0000m   14.6025u 
   17.06000p  700.0000m   14.6268u 
   17.07000p  700.0000m   14.6512u 
   17.08000p  700.0000m   14.6755u 
   17.09000p  700.0000m   14.6999u 
   17.10000p  700.0000m   14.7242u 
   17.11000p  700.0000m   14.7486u 
   17.12000p  700.0000m   14.7729u 
   17.13000p  700.0000m   14.7973u 
   17.14000p  700.0000m   14.8217u 
   17.15000p  700.0000m   14.8460u 
   17.16000p  700.0000m   14.8704u 
   17.17000p  700.0000m   14.8947u 
   17.18000p  700.0000m   14.9191u 
   17.19000p  700.0000m   14.9434u 
   17.20000p  700.0000m   14.9678u 
   17.21000p  700.0000m   14.9921u 
   17.22000p  700.0000m   15.0165u 
   17.23000p  700.0000m   15.0408u 
   17.24000p  700.0000m   15.0652u 
   17.25000p  700.0000m   15.0895u 
   17.26000p  700.0000m   15.1139u 
   17.27000p  700.0000m   15.1383u 
   17.28000p  700.0000m   15.1626u 
   17.29000p  700.0000m   15.1870u 
   17.30000p  700.0000m   15.2113u 
   17.31000p  700.0000m   15.2357u 
   17.32000p  700.0000m   15.2600u 
   17.33000p  700.0000m   15.2844u 
   17.34000p  700.0000m   15.3087u 
   17.35000p  700.0000m   15.3331u 
   17.36000p  700.0000m   15.3574u 
   17.37000p  700.0000m   15.3818u 
   17.38000p  700.0000m   15.4062u 
   17.39000p  700.0000m   15.4305u 
   17.40000p  700.0000m   15.4549u 
   17.41000p  700.0000m   15.4792u 
   17.42000p  700.0000m   15.5036u 
   17.43000p  700.0000m   15.5279u 
   17.44000p  700.0000m   15.5523u 
   17.45000p  700.0000m   15.5766u 
   17.46000p  700.0000m   15.6010u 
   17.47000p  700.0000m   15.6253u 
   17.48000p  700.0000m   15.6497u 
   17.49000p  700.0000m   15.6740u 
   17.50000p  700.0000m   15.6984u 
   17.51000p  700.0000m   15.7228u 
   17.52000p  700.0000m   15.7471u 
   17.53000p  700.0000m   15.7715u 
   17.54000p  700.0000m   15.7958u 
   17.55000p  700.0000m   15.8202u 
   17.56000p  700.0000m   15.8445u 
   17.57000p  700.0000m   15.8689u 
   17.58000p  700.0000m   15.8932u 
   17.59000p  700.0000m   15.9176u 
   17.60000p  700.0000m   15.9419u 
   17.61000p  699.9999m   15.9663u 
   17.62000p  699.9999m   15.9907u 
   17.63000p  699.9999m   16.0150u 
   17.64000p  699.9999m   16.0394u 
   17.65000p  699.9999m   16.0637u 
   17.66000p  699.9999m   16.0881u 
   17.67000p  699.9999m   16.1124u 
   17.68000p  699.9999m   16.1368u 
   17.69000p  699.9999m   16.1611u 
   17.70000p  699.9999m   16.1855u 
   17.71000p  699.9999m   16.2098u 
   17.72000p  699.9999m   16.2342u 
   17.73000p  699.9999m   16.2585u 
   17.74000p  699.9999m   16.2829u 
   17.75000p  699.9999m   16.3073u 
   17.76000p  699.9999m   16.3316u 
   17.77000p  699.9999m   16.3560u 
   17.78000p  699.9999m   16.3803u 
   17.79000p  699.9999m   16.4047u 
   17.80000p  699.9999m   16.4290u 
   17.81000p  699.9999m   16.4534u 
   17.82000p  699.9999m   16.4777u 
   17.83000p  699.9999m   16.5021u 
   17.84000p  699.9999m   16.5264u 
   17.85000p  699.9999m   16.5508u 
   17.86000p  699.9999m   16.5752u 
   17.87000p  699.9999m   16.5995u 
   17.88000p  699.9999m   16.6239u 
   17.89000p  699.9999m   16.6482u 
   17.90000p  699.9999m   16.6726u 
   17.91000p  699.9999m   16.6969u 
   17.92000p  699.9999m   16.7213u 
   17.93000p  699.9999m   16.7456u 
   17.94000p  699.9999m   16.7700u 
   17.95000p  699.9999m   16.7943u 
   17.96000p  699.9999m   16.8187u 
   17.97000p  699.9999m   16.8430u 
   17.98000p  699.9999m   16.8674u 
   17.99000p  699.9999m   16.8918u 
   18.00000p  699.9999m   16.9161u 
   18.01000p  699.9999m   16.9405u 
   18.02000p  699.9999m   16.9648u 
   18.03000p  699.9999m   16.9892u 
   18.04000p  699.9999m   17.0135u 
   18.05000p  699.9999m   17.0379u 
   18.06000p  699.9999m   17.0622u 
   18.07000p  699.9999m   17.0866u 
   18.08000p  699.9999m   17.1109u 
   18.09000p  699.9999m   17.1353u 
   18.10000p  699.9999m   17.1597u 
   18.11000p  699.9999m   17.1840u 
   18.12000p  699.9999m   17.2084u 
   18.13000p  699.9999m   17.2327u 
   18.14000p  699.9999m   17.2571u 
   18.15000p  699.9999m   17.2814u 
   18.16000p  699.9999m   17.3058u 
   18.17000p  699.9999m   17.3301u 
   18.18000p  699.9999m   17.3545u 
   18.19000p  699.9999m   17.3788u 
   18.20000p  699.9999m   17.4032u 
   18.21000p  699.9998m   17.4276u 
   18.22000p  699.9998m   17.4519u 
   18.23000p  699.9998m   17.4763u 
   18.24000p  699.9998m   17.5006u 
   18.25000p  699.9998m   17.5250u 
   18.26000p  699.9998m   17.5493u 
   18.27000p  699.9998m   17.5737u 
   18.28000p  699.9998m   17.5980u 
   18.29000p  699.9998m   17.6224u 
   18.30000p  699.9998m   17.6467u 
   18.31000p  699.9998m   17.6711u 
   18.32000p  699.9998m   17.6954u 
   18.33000p  699.9998m   17.7198u 
   18.34000p  699.9998m   17.7442u 
   18.35000p  699.9998m   17.7685u 
   18.36000p  699.9998m   17.7929u 
   18.37000p  699.9998m   17.8172u 
   18.38000p  699.9998m   17.8416u 
   18.39000p  699.9998m   17.8659u 
   18.40000p  699.9998m   17.8903u 
   18.41000p  699.9998m   17.9146u 
   18.42000p  699.9998m   17.9390u 
   18.43000p  699.9998m   17.9633u 
   18.44000p  699.9998m   17.9877u 
   18.45000p  699.9998m   18.0121u 
   18.46000p  699.9998m   18.0364u 
   18.47000p  699.9998m   18.0608u 
   18.48000p  699.9998m   18.0851u 
   18.49000p  699.9998m   18.1095u 
   18.50000p  699.9998m   18.1338u 
   18.51000p  699.9998m   18.1582u 
   18.52000p  699.9998m   18.1825u 
   18.53000p  699.9998m   18.2069u 
   18.54000p  699.9998m   18.2312u 
   18.55000p  699.9998m   18.2556u 
   18.56000p  699.9998m   18.2799u 
   18.57000p  699.9998m   18.3043u 
   18.58000p  699.9998m   18.3287u 
   18.59000p  699.9998m   18.3530u 
   18.60000p  699.9998m   18.3774u 
   18.61000p  699.9998m   18.4017u 
   18.62000p  699.9998m   18.4261u 
   18.63000p  699.9998m   18.4504u 
   18.64000p  699.9998m   18.4748u 
   18.65000p  699.9998m   18.4991u 
   18.66000p  699.9998m   18.5235u 
   18.67000p  699.9998m   18.5478u 
   18.68000p  699.9998m   18.5722u 
   18.69000p  699.9998m   18.5966u 
   18.70000p  699.9998m   18.6209u 
   18.71000p  699.9998m   18.6453u 
   18.72000p  699.9998m   18.6696u 
   18.73000p  699.9998m   18.6940u 
   18.74000p  699.9998m   18.7183u 
   18.75000p  699.9998m   18.7427u 
   18.76000p  699.9998m   18.7670u 
   18.77000p  699.9998m   18.7914u 
   18.78000p  699.9998m   18.8157u 
   18.79000p  699.9998m   18.8401u 
   18.80000p  699.9998m   18.8644u 
   18.81000p  699.9997m   18.8888u 
   18.82000p  699.9997m   18.9132u 
   18.83000p  699.9997m   18.9375u 
   18.84000p  699.9997m   18.9619u 
   18.85000p  699.9997m   18.9862u 
   18.86000p  699.9997m   19.0106u 
   18.87000p  699.9997m   19.0349u 
   18.88000p  699.9997m   19.0593u 
   18.89000p  699.9997m   19.0836u 
   18.90000p  699.9997m   19.1080u 
   18.91000p  699.9997m   19.1323u 
   18.92000p  699.9997m   19.1567u 
   18.93000p  699.9997m   19.1811u 
   18.94000p  699.9997m   19.2054u 
   18.95000p  699.9997m   19.2298u 
   18.96000p  699.9997m   19.2541u 
   18.97000p  699.9997m   19.2785u 
   18.98000p  699.9997m   19.3028u 
   18.99000p  699.9997m   19.3272u 
   19.00000p  699.9997m   19.3515u 
   19.01000p  699.9997m   19.3759u 
   19.02000p  699.9997m   19.4002u 
   19.03000p  699.9997m   19.4246u 
   19.04000p  699.9997m   19.4489u 
   19.05000p  699.9997m   19.4733u 
   19.06000p  699.9997m   19.4977u 
   19.07000p  699.9997m   19.5220u 
   19.08000p  699.9997m   19.5464u 
   19.09000p  699.9997m   19.5707u 
   19.10000p  699.9997m   19.5951u 
   19.11000p  699.9997m   19.6194u 
   19.12000p  699.9997m   19.6438u 
   19.13000p  699.9997m   19.6681u 
   19.14000p  699.9997m   19.6925u 
   19.15000p  699.9997m   19.7168u 
   19.16000p  699.9997m   19.7412u 
   19.17000p  699.9997m   19.7656u 
   19.18000p  699.9997m   19.7899u 
   19.19000p  699.9997m   19.8143u 
   19.20000p  699.9997m   19.8386u 
   19.21000p  699.9997m   19.8630u 
   19.22000p  699.9997m   19.8873u 
   19.23000p  699.9997m   19.9117u 
   19.24000p  699.9997m   19.9360u 
   19.25000p  699.9997m   19.9604u 
   19.26000p  699.9997m   19.9847u 
   19.27000p  699.9997m   20.0091u 
   19.28000p  699.9997m   20.0334u 
   19.29000p  699.9997m   20.0578u 
   19.30000p  699.9997m   20.0822u 
   19.31000p  699.9997m   20.1065u 
   19.32000p  699.9997m   20.1309u 
   19.33000p  699.9997m   20.1552u 
   19.34000p  699.9997m   20.1796u 
   19.35000p  699.9997m   20.2039u 
   19.36000p  699.9997m   20.2283u 
   19.37000p  699.9997m   20.2526u 
   19.38000p  699.9997m   20.2770u 
   19.39000p  699.9997m   20.3013u 
   19.40000p  699.9997m   20.3257u 
   19.41000p  699.9996m   20.3501u 
   19.42000p  699.9996m   20.3744u 
   19.43000p  699.9996m   20.3988u 
   19.44000p  699.9996m   20.4231u 
   19.45000p  699.9996m   20.4475u 
   19.46000p  699.9996m   20.4718u 
   19.47000p  699.9996m   20.4962u 
   19.48000p  699.9996m   20.5205u 
   19.49000p  699.9996m   20.5449u 
   19.50000p  699.9996m   20.5692u 
   19.51000p  699.9996m   20.5936u 
   19.52000p  699.9996m   20.6179u 
   19.53000p  699.9996m   20.6423u 
   19.54000p  699.9996m   20.6667u 
   19.55000p  699.9996m   20.6910u 
   19.56000p  699.9996m   20.7154u 
   19.57000p  699.9996m   20.7397u 
   19.58000p  699.9996m   20.7641u 
   19.59000p  699.9996m   20.7884u 
   19.60000p  699.9996m   20.8128u 
   19.61000p  699.9996m   20.8371u 
   19.62000p  699.9996m   20.8615u 
   19.63000p  699.9996m   20.8858u 
   19.64000p  699.9996m   20.9102u 
   19.65000p  699.9996m   20.9346u 
   19.66000p  699.9996m   20.9589u 
   19.67000p  699.9996m   20.9833u 
   19.68000p  699.9996m   21.0076u 
   19.69000p  699.9996m   21.0320u 
   19.70000p  699.9996m   21.0563u 
   19.71000p  699.9996m   21.0807u 
   19.72000p  699.9996m   21.1050u 
   19.73000p  699.9996m   21.1294u 
   19.74000p  699.9996m   21.1537u 
   19.75000p  699.9996m   21.1781u 
   19.76000p  699.9996m   21.2024u 
   19.77000p  699.9996m   21.2268u 
   19.78000p  699.9996m   21.2512u 
   19.79000p  699.9996m   21.2755u 
   19.80000p  699.9996m   21.2999u 
   19.81000p  699.9996m   21.3242u 
   19.82000p  699.9996m   21.3486u 
   19.83000p  699.9996m   21.3729u 
   19.84000p  699.9996m   21.3973u 
   19.85000p  699.9996m   21.4216u 
   19.86000p  699.9996m   21.4460u 
   19.87000p  699.9996m   21.4703u 
   19.88000p  699.9996m   21.4947u 
   19.89000p  699.9996m   21.5191u 
   19.90000p  699.9996m   21.5434u 
   19.91000p  699.9996m   21.5678u 
   19.92000p  699.9996m   21.5921u 
   19.93000p  699.9996m   21.6165u 
   19.94000p  699.9996m   21.6408u 
   19.95000p  699.9996m   21.6652u 
   19.96000p  699.9996m   21.6895u 
   19.97000p  699.9996m   21.7139u 
   19.98000p  699.9996m   21.7382u 
   19.99000p  699.9996m   21.7626u 
   20.00000p  699.9996m   21.7870u 
   20.01000p  699.9995m   21.8113u 
   20.02000p  699.9995m   21.8357u 
   20.03000p  699.9995m   21.8600u 
   20.04000p  699.9995m   21.8844u 
   20.05000p  699.9995m   21.9087u 
   20.06000p  699.9995m   21.9331u 
   20.07000p  699.9995m   21.9574u 
   20.08000p  699.9995m   21.9818u 
   20.09000p  699.9995m   22.0061u 
   20.10000p  699.9995m   22.0305u 
   20.11000p  699.9995m   22.0548u 
   20.12000p  699.9995m   22.0792u 
   20.13000p  699.9995m   22.1036u 
   20.14000p  699.9995m   22.1279u 
   20.15000p  699.9995m   22.1523u 
   20.16000p  699.9995m   22.1766u 
   20.17000p  699.9995m   22.2387u 
   20.18000p  699.9995m   22.3568u 
   20.19000p  699.9995m   22.4749u 
   20.20000p  699.9995m   22.5930u 
   20.21000p  699.9995m   22.7111u 
   20.22000p  699.9995m   22.8292u 
   20.23000p  699.9995m   22.9473u 
   20.24000p  699.9995m   23.0654u 
   20.25000p  699.9995m   23.1835u 
   20.26000p  699.9995m   23.3016u 
   20.27000p  699.9995m   23.4198u 
   20.28000p  699.9995m   23.5379u 
   20.29000p  699.9996m   23.6560u 
   20.30000p  699.9996m   23.7741u 
   20.31000p  699.9996m   23.8922u 
   20.32000p  699.9996m   24.0103u 
   20.33000p  699.9996m   24.1284u 
   20.34000p  699.9996m   24.2465u 
   20.35000p  699.9996m   24.3646u 
   20.36000p  699.9996m   24.4827u 
   20.37000p  699.9996m   24.6008u 
   20.38000p  699.9996m   24.7189u 
   20.39000p  699.9996m   24.8370u 
   20.40000p  699.9996m   24.9551u 
   20.41000p  699.9996m   25.0732u 
   20.42000p  699.9996m   25.1913u 
   20.43000p  699.9996m   25.3094u 
   20.44000p  699.9996m   25.4275u 
   20.45000p  699.9996m   25.5456u 
   20.46000p  699.9996m   25.6637u 
   20.47000p  699.9996m   25.7818u 
   20.48000p  699.9996m   25.8999u 
   20.49000p  699.9996m   26.0180u 
   20.50000p  699.9996m   26.1362u 
   20.51000p  699.9996m   26.2543u 
   20.52000p  699.9996m   26.3724u 
   20.53000p  699.9996m   26.4905u 
   20.54000p  699.9996m   26.6086u 
   20.55000p  699.9996m   26.7267u 
   20.56000p  699.9996m   26.8448u 
   20.57000p  699.9996m   26.9629u 
   20.58000p  699.9996m   27.0810u 
   20.59000p  699.9996m   27.1991u 
   20.60000p  699.9996m   27.3172u 
   20.61000p  699.9996m   27.4353u 
   20.62000p  699.9996m   27.5534u 
   20.63000p  699.9996m   27.6715u 
   20.64000p  699.9996m   27.7896u 
   20.65000p  699.9996m   27.9077u 
   20.66000p  699.9996m   28.0258u 
   20.67000p  699.9996m   28.1439u 
   20.68000p  699.9996m   28.2620u 
   20.69000p  699.9996m   28.3801u 
   20.70000p  699.9996m   28.4982u 
   20.71000p  699.9997m   28.6163u 
   20.72000p  699.9997m   28.7345u 
   20.73000p  699.9997m   28.8526u 
   20.74000p  699.9997m   28.9707u 
   20.75000p  699.9997m   29.0888u 
   20.76000p  699.9997m   29.2069u 
   20.77000p  699.9997m   29.3250u 
   20.78000p  699.9997m   29.4431u 
   20.79000p  699.9997m   29.5612u 
   20.80000p  699.9997m   29.6793u 
   20.81000p  699.9997m   29.7974u 
   20.82000p  699.9997m   29.9155u 
   20.83000p  699.9997m   30.0336u 
   20.84000p  699.9997m   30.1517u 
   20.85000p  699.9997m   30.2698u 
   20.86000p  699.9997m   30.3879u 
   20.87000p  699.9997m   30.5060u 
   20.88000p  699.9997m   30.6241u 
   20.89000p  699.9997m   30.7422u 
   20.90000p  699.9997m   30.8603u 
   20.91000p  699.9997m   30.9784u 
   20.92000p  699.9997m   31.0965u 
   20.93000p  699.9997m   31.2146u 
   20.94000p  699.9997m   31.3328u 
   20.95000p  699.9997m   31.4509u 
   20.96000p  699.9997m   31.5690u 
   20.97000p  699.9997m   31.6871u 
   20.98000p  699.9997m   31.8052u 
   20.99000p  699.9997m   31.9233u 
   21.00000p  699.9997m   32.0414u 
   21.01000p  699.9997m   32.1595u 
   21.02000p  699.9997m   32.2776u 
   21.03000p  699.9997m   32.3957u 
   21.04000p  699.9997m   32.5138u 
   21.05000p  699.9997m   32.6319u 
   21.06000p  699.9997m   32.7500u 
   21.07000p  699.9997m   32.8681u 
   21.08000p  699.9997m   32.9862u 
   21.09000p  699.9997m   33.1043u 
   21.10000p  699.9997m   33.2224u 
   21.11000p  699.9997m   33.3405u 
   21.12000p  699.9997m   33.4586u 
   21.13000p  699.9998m   33.5767u 
   21.14000p  699.9998m   33.6948u 
   21.15000p  699.9998m   33.8129u 
   21.16000p  699.9998m   33.9310u 
   21.17000p  699.9998m   34.0492u 
   21.18000p  699.9998m   34.1673u 
   21.19000p  699.9998m   34.2854u 
   21.20000p  699.9998m   34.4035u 
   21.21000p  699.9998m   34.5216u 
   21.22000p  699.9998m   34.6397u 
   21.23000p  699.9998m   34.7578u 
   21.24000p  699.9998m   34.8759u 
   21.25000p  699.9998m   34.9940u 
   21.26000p  699.9998m   35.1121u 
   21.27000p  699.9998m   35.2302u 
[...]
  295.01000p  700.0000m  699.9875m 
  295.02000p  700.0000m  699.9875m 
  295.03000p  700.0000m  699.9875m 
  295.04000p  700.0000m  699.9875m 
  295.05000p  700.0000m  699.9875m 
  295.06000p  700.0000m  699.9875m 
  295.07000p  700.0000m  699.9875m 
  295.08000p  700.0000m  699.9875m 
  295.09000p  700.0000m  699.9875m 
  295.10000p  700.0000m  699.9875m 
  295.11000p  700.0000m  699.9875m 
  295.12000p  700.0000m  699.9875m 
  295.13000p  700.0000m  699.9875m 
  295.14000p  700.0000m  699.9875m 
  295.15000p  700.0000m  699.9875m 
  295.16000p  700.0000m  699.9875m 
  295.17000p  700.0000m  699.9875m 
  295.18000p  700.0000m  699.9875m 
  295.19000p  700.0000m  699.9875m 
  295.20000p  700.0000m  699.9875m 
  295.21000p  700.0000m  699.9875m 
  295.22000p  700.0000m  699.9875m 
  295.23000p  700.0000m  699.9875m 
  295.24000p  700.0000m  699.9875m 
  295.25000p  700.0000m  699.9875m 
  295.26000p  700.0000m  699.9875m 
  295.27000p  700.0000m  699.9875m 
  295.28000p  700.0000m  699.9875m 
  295.29000p  700.0000m  699.9875m 
  295.30000p  700.0000m  699.9875m 
  295.31000p  700.0000m  699.9875m 
  295.32000p  700.0000m  699.9875m 
  295.33000p  700.0000m  699.9875m 
  295.34000p  700.0000m  699.9875m 
  295.35000p  700.0000m  699.9875m 
  295.36000p  700.0000m  699.9875m 
  295.37000p  700.0000m  699.9875m 
  295.38000p  700.0000m  699.9875m 
  295.39000p  700.0000m  699.9875m 
  295.40000p  700.0000m  699.9875m 
  295.41000p  700.0000m  699.9875m 
  295.42000p  700.0000m  699.9875m 
  295.43000p  700.0000m  699.9875m 
  295.44000p  700.0000m  699.9875m 
  295.45000p  700.0000m  699.9875m 
  295.46000p  700.0000m  699.9875m 
  295.47000p  700.0000m  699.9875m 
  295.48000p  700.0000m  699.9875m 
  295.49000p  700.0000m  699.9875m 
  295.50000p  700.0000m  699.9875m 
  295.51000p  700.0000m  699.9875m 
  295.52000p  700.0000m  699.9875m 
  295.53000p  700.0000m  699.9875m 
  295.54000p  700.0000m  699.9875m 
  295.55000p  700.0000m  699.9875m 
  295.56000p  700.0000m  699.9875m 
  295.57000p  700.0000m  699.9875m 
  295.58000p  700.0000m  699.9875m 
  295.59000p  700.0000m  699.9875m 
  295.60000p  700.0000m  699.9875m 
  295.61000p  700.0000m  699.9875m 
  295.62000p  700.0000m  699.9875m 
  295.63000p  700.0000m  699.9875m 
  295.64000p  700.0000m  699.9875m 
  295.65000p  700.0000m  699.9875m 
  295.66000p  700.0000m  699.9876m 
  295.67000p  700.0000m  699.9876m 
  295.68000p  700.0000m  699.9876m 
  295.69000p  700.0001m  699.9876m 
  295.70000p  700.0001m  699.9876m 
  295.71000p  700.0001m  699.9876m 
  295.72000p  700.0001m  699.9876m 
  295.73000p  700.0001m  699.9876m 
  295.74000p  700.0001m  699.9876m 
  295.75000p  700.0001m  699.9876m 
  295.76000p  700.0001m  699.9876m 
  295.77000p  700.0001m  699.9876m 
  295.78000p  700.0001m  699.9876m 
  295.79000p  700.0001m  699.9876m 
  295.80000p  700.0001m  699.9876m 
  295.81000p  700.0001m  699.9876m 
  295.82000p  700.0001m  699.9876m 
  295.83000p  700.0001m  699.9876m 
  295.84000p  700.0001m  699.9876m 
  295.85000p  700.0001m  699.9876m 
  295.86000p  700.0001m  699.9876m 
  295.87000p  700.0001m  699.9876m 
  295.88000p  700.0001m  699.9876m 
  295.89000p  700.0001m  699.9876m 
  295.90000p  700.0001m  699.9876m 
  295.91000p  700.0001m  699.9876m 
  295.92000p  700.0001m  699.9876m 
  295.93000p  700.0001m  699.9876m 
  295.94000p  700.0001m  699.9876m 
  295.95000p  700.0001m  699.9876m 
  295.96000p  700.0001m  699.9876m 
  295.97000p  700.0001m  699.9876m 
  295.98000p  700.0001m  699.9876m 
  295.99000p  700.0001m  699.9876m 
  296.00000p  700.0001m  699.9876m 
  296.01000p  700.0001m  699.9876m 
  296.02000p  700.0001m  699.9876m 
  296.03000p  700.0001m  699.9876m 
  296.04000p  700.0001m  699.9876m 
  296.05000p  700.0001m  699.9876m 
  296.06000p  700.0001m  699.9876m 
  296.07000p  700.0001m  699.9876m 
  296.08000p  700.0001m  699.9876m 
  296.09000p  700.0001m  699.9876m 
  296.10000p  700.0001m  699.9876m 
  296.11000p  700.0001m  699.9876m 
  296.12000p  700.0001m  699.9876m 
  296.13000p  700.0001m  699.9876m 
  296.14000p  700.0001m  699.9876m 
  296.15000p  700.0001m  699.9876m 
  296.16000p  700.0001m  699.9876m 
  296.17000p  700.0001m  699.9876m 
  296.18000p  700.0001m  699.9876m 
  296.19000p  700.0001m  699.9876m 
  296.20000p  700.0001m  699.9876m 
  296.21000p  700.0001m  699.9876m 
  296.22000p  700.0001m  699.9876m 
  296.23000p  700.0001m  699.9876m 
  296.24000p  700.0001m  699.9876m 
  296.25000p  700.0001m  699.9876m 
  296.26000p  700.0001m  699.9876m 
  296.27000p  700.0001m  699.9876m 
  296.28000p  700.0001m  699.9876m 
  296.29000p  700.0001m  699.9876m 
  296.30000p  700.0001m  699.9876m 
  296.31000p  700.0001m  699.9876m 
  296.32000p  700.0001m  699.9876m 
  296.33000p  700.0001m  699.9876m 
  296.34000p  700.0001m  699.9876m 
  296.35000p  700.0001m  699.9876m 
  296.36000p  700.0001m  699.9876m 
  296.37000p  700.0001m  699.9876m 
  296.38000p  700.0001m  699.9876m 
  296.39000p  700.0001m  699.9876m 
  296.40000p  700.0001m  699.9876m 
  296.41000p  700.0001m  699.9876m 
  296.42000p  700.0001m  699.9876m 
  296.43000p  700.0001m  699.9876m 
  296.44000p  700.0001m  699.9876m 
  296.45000p  700.0001m  699.9876m 
  296.46000p  700.0001m  699.9876m 
  296.47000p  700.0001m  699.9876m 
  296.48000p  700.0001m  699.9876m 
  296.49000p  700.0001m  699.9877m 
  296.50000p  700.0001m  699.9877m 
  296.51000p  700.0001m  699.9877m 
  296.52000p  700.0001m  699.9877m 
  296.53000p  700.0001m  699.9877m 
  296.54000p  700.0001m  699.9877m 
  296.55000p  700.0001m  699.9877m 
  296.56000p  700.0001m  699.9877m 
  296.57000p  700.0001m  699.9877m 
  296.58000p  700.0001m  699.9877m 
  296.59000p  700.0001m  699.9877m 
  296.60000p  700.0001m  699.9877m 
  296.61000p  700.0001m  699.9877m 
  296.62000p  700.0001m  699.9877m 
  296.63000p  700.0001m  699.9877m 
  296.64000p  700.0001m  699.9877m 
  296.65000p  700.0001m  699.9877m 
  296.66000p  700.0001m  699.9877m 
  296.67000p  700.0001m  699.9877m 
  296.68000p  700.0001m  699.9877m 
  296.69000p  700.0001m  699.9877m 
  296.70000p  700.0001m  699.9877m 
  296.71000p  700.0001m  699.9877m 
  296.72000p  700.0001m  699.9877m 
  296.73000p  700.0001m  699.9877m 
  296.74000p  700.0001m  699.9877m 
  296.75000p  700.0001m  699.9877m 
  296.76000p  700.0001m  699.9877m 
  296.77000p  700.0001m  699.9877m 
  296.78000p  700.0001m  699.9877m 
  296.79000p  700.0001m  699.9877m 
  296.80000p  700.0001m  699.9877m 
  296.81000p  700.0001m  699.9877m 
  296.82000p  700.0001m  699.9877m 
  296.83000p  700.0001m  699.9877m 
  296.84000p  700.0001m  699.9877m 
  296.85000p  700.0001m  699.9877m 
  296.86000p  700.0001m  699.9877m 
  296.87000p  700.0001m  699.9877m 
  296.88000p  700.0001m  699.9877m 
  296.89000p  700.0001m  699.9877m 
  296.90000p  700.0001m  699.9877m 
  296.91000p  700.0001m  699.9877m 
  296.92000p  700.0001m  699.9877m 
  296.93000p  700.0001m  699.9877m 
  296.94000p  700.0001m  699.9877m 
  296.95000p  700.0001m  699.9877m 
  296.96000p  700.0001m  699.9877m 
  296.97000p  700.0001m  699.9877m 
  296.98000p  700.0001m  699.9877m 
  296.99000p  700.0001m  699.9877m 
  297.00000p  700.0001m  699.9877m 
  297.01000p  700.0001m  699.9877m 
  297.02000p  700.0001m  699.9877m 
  297.03000p  700.0001m  699.9877m 
  297.04000p  700.0001m  699.9877m 
  297.05000p  700.0001m  699.9877m 
  297.06000p  700.0001m  699.9877m 
  297.07000p  700.0001m  699.9877m 
  297.08000p  700.0001m  699.9877m 
  297.09000p  700.0001m  699.9877m 
  297.10000p  700.0001m  699.9877m 
  297.11000p  700.0001m  699.9877m 
  297.12000p  700.0001m  699.9877m 
  297.13000p  700.0001m  699.9877m 
  297.14000p  700.0001m  699.9877m 
  297.15000p  700.0001m  699.9877m 
  297.16000p  700.0001m  699.9877m 
  297.17000p  700.0001m  699.9877m 
  297.18000p  700.0001m  699.9877m 
  297.19000p  700.0001m  699.9877m 
  297.20000p  700.0001m  699.9877m 
  297.21000p  700.0001m  699.9877m 
  297.22000p  700.0001m  699.9877m 
  297.23000p  700.0001m  699.9877m 
  297.24000p  700.0001m  699.9877m 
  297.25000p  700.0001m  699.9877m 
  297.26000p  700.0001m  699.9877m 
  297.27000p  700.0001m  699.9877m 
  297.28000p  700.0001m  699.9877m 
  297.29000p  700.0001m  699.9877m 
  297.30000p  700.0001m  699.9877m 
  297.31000p  700.0001m  699.9877m 
  297.32000p  700.0001m  699.9878m 
  297.33000p  700.0001m  699.9878m 
  297.34000p  700.0001m  699.9878m 
  297.35000p  700.0001m  699.9878m 
  297.36000p  700.0001m  699.9878m 
  297.37000p  700.0001m  699.9878m 
  297.38000p  700.0001m  699.9878m 
  297.39000p  700.0001m  699.9878m 
  297.40000p  700.0001m  699.9878m 
  297.41000p  700.0001m  699.9878m 
  297.42000p  700.0001m  699.9878m 
  297.43000p  700.0001m  699.9878m 
  297.44000p  700.0001m  699.9878m 
  297.45000p  700.0001m  699.9878m 
  297.46000p  700.0001m  699.9878m 
  297.47000p  700.0001m  699.9878m 
  297.48000p  700.0001m  699.9878m 
  297.49000p  700.0001m  699.9878m 
  297.50000p  700.0001m  699.9878m 
  297.51000p  700.0001m  699.9878m 
  297.52000p  700.0001m  699.9878m 
  297.53000p  700.0001m  699.9878m 
  297.54000p  700.0001m  699.9878m 
  297.55000p  700.0001m  699.9878m 
  297.56000p  700.0001m  699.9878m 
  297.57000p  700.0001m  699.9878m 
  297.58000p  700.0001m  699.9878m 
  297.59000p  700.0001m  699.9878m 
  297.60000p  700.0001m  699.9878m 
  297.61000p  700.0001m  699.9878m 
  297.62000p  700.0001m  699.9878m 
  297.63000p  700.0001m  699.9878m 
  297.64000p  700.0001m  699.9878m 
  297.65000p  700.0001m  699.9878m 
  297.66000p  700.0001m  699.9878m 
  297.67000p  700.0001m  699.9878m 
  297.68000p  700.0001m  699.9878m 
  297.69000p  700.0001m  699.9878m 
  297.70000p  700.0001m  699.9878m 
  297.71000p  700.0001m  699.9878m 
  297.72000p  700.0001m  699.9878m 
  297.73000p  700.0001m  699.9878m 
  297.74000p  700.0001m  699.9878m 
  297.75000p  700.0001m  699.9878m 
  297.76000p  700.0001m  699.9878m 
  297.77000p  700.0001m  699.9878m 
  297.78000p  700.0001m  699.9878m 
  297.79000p  700.0001m  699.9878m 
  297.80000p  700.0001m  699.9878m 
  297.81000p  700.0001m  699.9878m 
  297.82000p  700.0001m  699.9878m 
  297.83000p  700.0001m  699.9878m 
  297.84000p  700.0001m  699.9878m 
  297.85000p  700.0001m  699.9878m 
  297.86000p  700.0001m  699.9878m 
  297.87000p  700.0001m  699.9878m 
  297.88000p  700.0001m  699.9878m 
  297.89000p  700.0001m  699.9878m 
  297.90000p  700.0001m  699.9878m 
  297.91000p  700.0001m  699.9878m 
  297.92000p  700.0001m  699.9878m 
  297.93000p  700.0001m  699.9878m 
  297.94000p  700.0001m  699.9878m 
  297.95000p  700.0001m  699.9878m 
  297.96000p  700.0001m  699.9878m 
  297.97000p  700.0001m  699.9878m 
  297.98000p  700.0001m  699.9878m 
  297.99000p  700.0001m  699.9878m 
  298.00000p  700.0001m  699.9878m 
  298.01000p  700.0001m  699.9878m 
  298.02000p  700.0001m  699.9878m 
  298.03000p  700.0001m  699.9878m 
  298.04000p  700.0001m  699.9878m 
  298.05000p  700.0001m  699.9878m 
  298.06000p  700.0001m  699.9878m 
  298.07000p  700.0001m  699.9878m 
  298.08000p  700.0001m  699.9878m 
  298.09000p  700.0001m  699.9878m 
  298.10000p  700.0001m  699.9878m 
  298.11000p  700.0001m  699.9878m 
  298.12000p  700.0001m  699.9878m 
  298.13000p  700.0001m  699.9878m 
  298.14000p  700.0001m  699.9878m 
  298.15000p  700.0001m  699.9879m 
  298.16000p  700.0001m  699.9879m 
  298.17000p  700.0001m  699.9879m 
  298.18000p  700.0001m  699.9879m 
  298.19000p  700.0001m  699.9879m 
  298.20000p  700.0001m  699.9879m 
  298.21000p  700.0001m  699.9879m 
  298.22000p  700.0001m  699.9879m 
  298.23000p  700.0001m  699.9879m 
  298.24000p  700.0001m  699.9879m 
  298.25000p  700.0001m  699.9879m 
  298.26000p  700.0001m  699.9879m 
  298.27000p  700.0001m  699.9879m 
  298.28000p  700.0001m  699.9879m 
  298.29000p  700.0001m  699.9879m 
  298.30000p  700.0001m  699.9879m 
  298.31000p  700.0001m  699.9879m 
  298.32000p  700.0001m  699.9879m 
  298.33000p  700.0001m  699.9879m 
  298.34000p  700.0001m  699.9879m 
  298.35000p  700.0001m  699.9879m 
  298.36000p  700.0001m  699.9879m 
  298.37000p  700.0001m  699.9879m 
  298.38000p  700.0001m  699.9879m 
  298.39000p  700.0001m  699.9879m 
  298.40000p  700.0001m  699.9879m 
  298.41000p  700.0001m  699.9879m 
  298.42000p  700.0001m  699.9879m 
  298.43000p  700.0001m  699.9879m 
  298.44000p  700.0001m  699.9879m 
  298.45000p  700.0001m  699.9879m 
  298.46000p  700.0001m  699.9879m 
  298.47000p  700.0001m  699.9879m 
  298.48000p  700.0001m  699.9879m 
  298.49000p  700.0001m  699.9879m 
  298.50000p  700.0001m  699.9879m 
  298.51000p  700.0001m  699.9879m 
  298.52000p  700.0001m  699.9879m 
  298.53000p  700.0001m  699.9879m 
  298.54000p  700.0001m  699.9879m 
  298.55000p  700.0001m  699.9879m 
  298.56000p  700.0001m  699.9879m 
  298.57000p  700.0001m  699.9879m 
  298.58000p  700.0001m  699.9879m 
  298.59000p  700.0001m  699.9879m 
  298.60000p  700.0001m  699.9879m 
  298.61000p  700.0001m  699.9879m 
  298.62000p  700.0001m  699.9879m 
  298.63000p  700.0001m  699.9879m 
  298.64000p  700.0001m  699.9879m 
  298.65000p  700.0001m  699.9879m 
  298.66000p  700.0001m  699.9879m 
  298.67000p  700.0001m  699.9879m 
  298.68000p  700.0001m  699.9879m 
  298.69000p  700.0001m  699.9879m 
  298.70000p  700.0001m  699.9879m 
  298.71000p  700.0001m  699.9879m 
  298.72000p  700.0001m  699.9879m 
  298.73000p  700.0001m  699.9879m 
  298.74000p  700.0001m  699.9879m 
  298.75000p  700.0001m  699.9879m 
  298.76000p  700.0001m  699.9879m 
  298.77000p  700.0001m  699.9879m 
  298.78000p  700.0001m  699.9879m 
  298.79000p  700.0001m  699.9879m 
  298.80000p  700.0001m  699.9879m 
  298.81000p  700.0001m  699.9879m 
  298.82000p  700.0001m  699.9879m 
  298.83000p  700.0001m  699.9879m 
  298.84000p  700.0001m  699.9879m 
  298.85000p  700.0001m  699.9879m 
  298.86000p  700.0001m  699.9879m 
  298.87000p  700.0001m  699.9879m 
  298.88000p  700.0001m  699.9879m 
  298.89000p  700.0001m  699.9879m 
  298.90000p  700.0001m  699.9879m 
  298.91000p  700.0001m  699.9879m 
  298.92000p  700.0001m  699.9879m 
  298.93000p  700.0001m  699.9879m 
  298.94000p  700.0001m  699.9879m 
  298.95000p  700.0001m  699.9879m 
  298.96000p  700.0001m  699.9879m 
  298.97000p  700.0001m  699.9879m 
  298.98000p  700.0001m  699.9880m 
  298.99000p  700.0001m  699.9880m 
  299.00000p  700.0001m  699.9880m 
  299.01000p  700.0001m  699.9880m 
  299.02000p  700.0001m  699.9880m 
  299.03000p  700.0001m  699.9880m 
  299.04000p  700.0001m  699.9880m 
  299.05000p  700.0001m  699.9880m 
  299.06000p  700.0001m  699.9880m 
  299.07000p  700.0001m  699.9880m 
  299.08000p  700.0001m  699.9880m 
  299.09000p  700.0001m  699.9880m 
  299.10000p  700.0001m  699.9880m 
  299.11000p  700.0001m  699.9880m 
  299.12000p  700.0001m  699.9880m 
  299.13000p  700.0001m  699.9880m 
  299.14000p  700.0001m  699.9880m 
  299.15000p  700.0001m  699.9880m 
  299.16000p  700.0001m  699.9880m 
  299.17000p  700.0001m  699.9880m 
  299.18000p  700.0001m  699.9880m 
  299.19000p  700.0001m  699.9880m 
  299.20000p  700.0001m  699.9880m 
  299.21000p  700.0001m  699.9880m 
  299.22000p  700.0001m  699.9880m 
  299.23000p  700.0001m  699.9880m 
  299.24000p  700.0001m  699.9880m 
  299.25000p  700.0001m  699.9880m 
  299.26000p  700.0001m  699.9880m 
  299.27000p  700.0001m  699.9880m 
  299.28000p  700.0002m  699.9880m 
  299.29000p  700.0002m  699.9880m 
  299.30000p  700.0002m  699.9880m 
  299.31000p  700.0002m  699.9880m 
  299.32000p  700.0002m  699.9880m 
  299.33000p  700.0002m  699.9880m 
  299.34000p  700.0002m  699.9880m 
  299.35000p  700.0002m  699.9880m 
  299.36000p  700.0002m  699.9880m 
  299.37000p  700.0002m  699.9880m 
  299.38000p  700.0002m  699.9880m 
  299.39000p  700.0002m  699.9880m 
  299.40000p  700.0002m  699.9880m 
  299.41000p  700.0002m  699.9880m 
  299.42000p  700.0002m  699.9880m 
  299.43000p  700.0002m  699.9880m 
  299.44000p  700.0002m  699.9880m 
  299.45000p  700.0002m  699.9880m 
  299.46000p  700.0002m  699.9880m 
  299.47000p  700.0002m  699.9880m 
  299.48000p  700.0002m  699.9880m 
  299.49000p  700.0002m  699.9880m 
  299.50000p  700.0002m  699.9880m 
  299.51000p  700.0002m  699.9880m 
  299.52000p  700.0002m  699.9880m 
  299.53000p  700.0002m  699.9880m 
  299.54000p  700.0002m  699.9880m 
  299.55000p  700.0002m  699.9880m 
  299.56000p  700.0002m  699.9880m 
  299.57000p  700.0002m  699.9880m 
  299.58000p  700.0002m  699.9880m 
  299.59000p  700.0002m  699.9880m 
  299.60000p  700.0002m  699.9880m 
  299.61000p  700.0002m  699.9880m 
  299.62000p  700.0002m  699.9880m 
  299.63000p  700.0002m  699.9880m 
  299.64000p  700.0002m  699.9880m 
  299.65000p  700.0002m  699.9880m 
  299.66000p  700.0002m  699.9880m 
  299.67000p  700.0002m  699.9880m 
  299.68000p  700.0002m  699.9880m 
  299.69000p  700.0002m  699.9880m 
  299.70000p  700.0002m  699.9880m 
  299.71000p  700.0002m  699.9880m 
  299.72000p  700.0002m  699.9880m 
  299.73000p  700.0002m  699.9880m 
  299.74000p  700.0002m  699.9880m 
  299.75000p  700.0002m  699.9880m 
  299.76000p  700.0002m  699.9880m 
  299.77000p  700.0002m  699.9880m 
  299.78000p  700.0002m  699.9880m 
  299.79000p  700.0002m  699.9880m 
  299.80000p  700.0002m  699.9880m 
  299.81000p  700.0002m  699.9881m 
  299.82000p  700.0002m  699.9881m 
  299.83000p  700.0002m  699.9881m 
  299.84000p  700.0002m  699.9881m 
  299.85000p  700.0002m  699.9881m 
  299.86000p  700.0002m  699.9881m 
  299.87000p  700.0002m  699.9881m 
  299.88000p  700.0002m  699.9881m 
  299.89000p  700.0002m  699.9881m 
  299.90000p  700.0002m  699.9881m 
  299.91000p  700.0002m  699.9881m 
  299.92000p  700.0002m  699.9881m 
  299.93000p  700.0002m  699.9881m 
  299.94000p  700.0002m  699.9881m 
  299.95000p  700.0002m  699.9881m 
  299.96000p  700.0002m  699.9881m 
  299.97000p  700.0002m  699.9881m 
  299.98000p  700.0002m  699.9881m 
  299.99000p  700.0002m  699.9881m 
  300.00000p  700.0002m  699.9881m 
y

          ***** job concluded
 ******  
 * c17.v spice version created using eda's tool.

 ****** job statistics summary tnom=  25.000 temp=  25.000 ******
  
 ******  Machine Information  ******
 CPU:
 model name	: Intel(R) Xeon(R) CPU E7- 8837  @ 2.67GHz
 cpu MHz	: 2663.658
  
 OS:
 Linux version 3.16.0-7-amd64 (debian-kernel@lists.debian.org) (gcc version 4.9.2 (Debian 4.9.2-10+deb8u1) ) #1 SMP Debian 3.16.59-1 (2018-10-03)


  ******  HSPICE Threads Information  ******

  Command Line Threads Count :     1
  Available CPU Count        :    32
  Actual Threads Count       :     1


  ******  Circuit Statistics  ******
  # nodes       =      68 # elements   =      33
  # resistors   =       0 # capacitors =       2 # inductors   =       0
  # mutual_inds =       0 # vccs       =       0 # vcvs        =       0
  # cccs        =       0 # ccvs       =       0 # volt_srcs   =       7
  # curr_srcs   =       0 # diodes     =       0 # bjts        =       0
  # jfets       =       0 # mosfets    =      24 # U elements  =       0
  # T elements  =       0 # W elements =       0 # B elements  =       0
  # S elements  =       0 # P elements =       0 # va device   =       0
  # vector_srcs =       0 # N elements =       0


  ******  Runtime Statistics (seconds)  ******

  analysis           time    # points   tot. iter  conv.iter
  op point           0.01           1           6
  transient          0.06       30001         198          69 rev=        12
  readin             0.01
  errchk             0.01
  setup              0.00
  output             0.00


           peak memory used        312.26 megabytes
           total cpu time            0.64 seconds
           total elapsed time        0.42 seconds
           job started at     01:31:26 02/24/2020
           job ended   at     01:31:26 02/24/2020



>info:         ***** hspice job concluded
 lic: Release hspice token(s) 
 lic: total license checkout elapse time:        0.06(s)
