Using: /opt/synopsys/hspice/O-2018.09-SP2-2/hspice/linux64/hspice spice_gen.sp
 ****** HSPICE -- O-2018.09-SP2-2 linux64 (May  9 2019) ******                  
  Copyright (c) 1986 - 2020 by Synopsys, Inc. All Rights Reserved.              
  This software and the associated documentation are proprietary
  to Synopsys, Inc. This software may only be used in accordance
  with the terms and conditions of a written license agreement with
  Synopsys, Inc. All other use, reproduction, or distribution of
  this software is strictly prohibited.
  Input File: spice_gen.sp                                                      
  Command line options: /opt/synopsys/hspice/O-2018.09-SP2-2/hspice/linux64/hspice spice_gen.sp
  Start time: Fri Apr 24 03:35:48 2020
 lic:  
 lic: FLEXlm: SDK_11.7.3 
 lic: USER:   mitsushij            HOSTNAME: sahand 
 lic: HOSTID: "80c16e72eecb"       PID:      36550 
 lic: Using FLEXlm license file: 
 lic: 1720@ics-lic2.usc.edu 
 lic: Checkout 1 hspice 
 lic: License/Maintenance for hspice will expire on 30-jun-2021/2019.06 
 lic: 1(in_use)/50(total) FLOATING license(s) on SERVER 1720@ics-lic2.usc.edu 
 lic:   
  **warning** (/home/home2/visiting/mitsushij/workspace/CSM/characterization/../data/modelfiles/PTM_MG/lstp/7nm_LSTP.pm:13) Model nfet device geometries will not be checked against the limits set by lmin, lmax, nfinmin and nfinmax. To enable this check, add a period(.) to the model name(i.e. enable model selector).
1****** HSPICE -- O-2018.09-SP2-2 linux64 (May  9 2019) ******                  
 ******  
 * hao ge <haoge@usc.edu>

 ****** circuit name directory
 circuit number to circuit name directory
   number circuitname                     definition         multiplier
        0 main circuit
        1 x0.                             inv                1.00 
  **info** (spice_gen.sp:24) DC voltage reset to initial transient source value in source 0:vout. new dc=-0.3000D+00
  
      

Element variations(Local):   element              parameter
 **info** set option symb=1 internally to help for convergence.
 *****************************************************************
 ******  option summary
 ******
 runlvl  = 3         bypass  = 2.0000    

   *** data name = sweep_co , index =     1 ***

 ******
 * hao ge <haoge@usc.edu>

 ****** transient analysis tnom=  25.000 temp= 125.000 ******
x

 time         voltage    voltage    param      param     
             in         out        i_vin      i_mn       
    0.       -250.0000m -300.0000m    5.2830p -763.4600p 
    1.19048f -250.0000m -300.0000m    5.2830p -763.4600p 
    2.38095f -250.0000m -297.5000m    2.7837u    1.5216u 
    3.57143f -250.0000m -295.0000m    5.4931u    3.0002u 
    4.76190f -250.0000m -292.5000m    7.8782u    4.2887u 
    5.95238f -250.0000m -290.0000m   10.2274u    5.5562u 
    7.14286f -250.0000m -287.5000m   12.5765u    6.8237u 
    8.33333f -250.0000m -285.0000m   14.4420u    7.8136u 
    9.52381f -250.0000m -282.5000m   16.0487u    8.6551u 
   10.71429f -250.0000m -280.0000m   17.6554u    9.4966u 
   11.90476f -250.0000m -277.5000m   19.2621u   10.3380u 
   13.09524f -250.0000m -275.0000m   20.8688u   11.1795u 
   14.28571f -250.0000m -272.5000m   22.4755u   12.0210u 
   15.47619f -250.0000m -270.0000m   24.0822u   12.8624u 
   16.66667f -250.0000m -267.5000m   25.6889u   13.7039u 
   17.85714f -250.0000m -265.0000m   27.2956u   14.5454u 
   19.04762f -250.0000m -262.5000m   28.9023u   15.3868u 
   20.23810f -250.0000m -260.0000m   30.2819u   16.1028u 
   21.42857f -250.0000m -257.5000m   31.0012u   16.4541u 
   22.61905f -250.0000m -255.0000m   31.7206u   16.8053u 
   23.80952f -250.0000m -252.5000m   32.4400u   17.1566u 
   25.00000f -250.0000m -250.0000m   33.1593u   17.5078u 
   26.19048f -250.0000m -247.5000m   33.8787u   17.8590u 
   27.38095f -250.0000m -245.0000m   34.5980u   18.2103u 
   28.57143f -250.0000m -242.5000m   35.3174u   18.5615u 
   29.76190f -250.0000m -240.0000m   36.0368u   18.9128u 
   30.95238f -250.0000m -237.5000m   36.7561u   19.2640u 
   32.14286f -250.0000m -235.0000m   37.4755u   19.6152u 
   33.33333f -250.0000m -232.5000m   38.1948u   19.9665u 
   34.52381f -250.0000m -230.0000m   38.9142u   20.3177u 
   35.71429f -250.0000m -227.5000m   39.6336u   20.6690u 
   36.90476f -250.0000m -225.0000m   40.3529u   21.0202u 
   38.09524f -250.0000m -222.5000m   41.0723u   21.3715u 
   39.28571f -250.0000m -220.0000m   41.7916u   21.7227u 
   40.47619f -250.0000m -217.5000m   42.5110u   22.0739u 
   41.66667f -250.0000m -215.0000m   43.2304u   22.4252u 
   42.85714f -250.0000m -212.5000m   43.9497u   22.7764u 
   44.04762f -250.0000m -210.0000m   44.6691u   23.1277u 
   45.23810f -250.0000m -207.5000m   45.2868u   23.4261u 
   46.42857f -250.0000m -205.0000m   45.5124u   23.5207u 
   47.61905f -250.0000m -202.5000m   45.7380u   23.6154u 
   48.80952f -250.0000m -200.0000m   45.9636u   23.7101u 
   50.00000f -250.0000m -197.5000m   46.1892u   23.8047u 
   51.19048f -250.0000m -195.0000m   46.4148u   23.8994u 
   52.38095f -250.0000m -192.5000m   46.6404u   23.9940u 
   53.57143f -250.0000m -190.0000m   46.8660u   24.0887u 
   54.76190f -250.0000m -187.5000m   47.0916u   24.1834u 
   55.95238f -250.0000m -185.0000m   47.3172u   24.2780u 
   57.14286f -250.0000m -182.5000m   47.5428u   24.3727u 
   58.33333f -250.0000m -180.0000m   47.7684u   24.4674u 
   59.52381f -250.0000m -177.5000m   47.9940u   24.5620u 
   60.71429f -250.0000m -175.0000m   48.2196u   24.6567u 
   61.90476f -250.0000m -172.5000m   48.4452u   24.7513u 
   63.09524f -250.0000m -170.0000m   48.6708u   24.8460u 
   64.28571f -250.0000m -167.5000m   48.8964u   24.9407u 
   65.47619f -250.0000m -165.0000m   49.1220u   25.0353u 
   66.66667f -250.0000m -162.5000m   49.3476u   25.1300u 
   67.85714f -250.0000m -160.0000m   49.5732u   25.2247u 
   69.04762f -250.0000m -157.5000m   49.7988u   25.3193u 
   70.23810f -250.0000m -155.0000m   50.0008u   25.4032u 
   71.42857f -250.0000m -152.5000m   50.0748u   25.4287u 
   72.61905f -250.0000m -150.0000m   50.1488u   25.4542u 
   73.80952f -250.0000m -147.5000m   50.2228u   25.4797u 
   75.00000f -250.0000m -145.0000m   50.2968u   25.5052u 
   76.19048f -250.0000m -142.5000m   50.3708u   25.5308u 
   77.38095f -250.0000m -140.0000m   50.4448u   25.5563u 
   78.57143f -250.0000m -137.5000m   50.5188u   25.5818u 
   79.76190f -250.0000m -135.0000m   50.5928u   25.6073u 
   80.95238f -250.0000m -132.5000m   50.6668u   25.6328u 
   82.14286f -250.0000m -130.0000m   50.7408u   25.6583u 
   83.33333f -250.0000m -127.5000m   50.8148u   25.6838u 
   84.52381f -250.0000m -125.0000m   50.8888u   25.7093u 
   85.71429f -250.0000m -122.5000m   50.9628u   25.7348u 
   86.90476f -250.0000m -120.0000m   51.0368u   25.7604u 
   88.09524f -250.0000m -117.5000m   51.1108u   25.7859u 
   89.28571f -250.0000m -115.0000m   51.1848u   25.8114u 
   90.47619f -250.0000m -112.5000m   51.2588u   25.8369u 
   91.66667f -250.0000m -110.0000m   51.3327u   25.8624u 
   92.85714f -250.0000m -107.5000m   51.4067u   25.8879u 
   94.04762f -250.0000m -105.0000m   51.4807u   25.9134u 
   95.23810f -250.0000m -102.5000m   51.5497u   25.9369u 
   96.42857f -250.0000m -100.0000m   51.5759u   25.9438u 
   97.61905f -250.0000m  -97.5000m   51.6021u   25.9507u 
   98.80952f -250.0000m  -95.0000m   51.6283u   25.9576u 
  100.00000f -250.0000m  -92.5000m   51.6544u   25.9644u 
  101.19048f -250.0000m  -90.0000m   51.6806u   25.9713u 
  102.38095f -250.0000m  -87.5000m   51.7068u   25.9782u 
  103.57143f -250.0000m  -85.0000m   51.7330u   25.9851u 
  104.76190f -250.0000m  -82.5000m   51.7592u   25.9919u 
  105.95238f -250.0000m  -80.0000m   51.7854u   25.9988u 
  107.14286f -250.0000m  -77.5000m   51.8116u   26.0057u 
  108.33333f -250.0000m  -75.0000m   51.8378u   26.0126u 
  109.52381f -250.0000m  -72.5000m   51.8640u   26.0194u 
  110.71429f -250.0000m  -70.0000m   51.8902u   26.0263u 
  111.90476f -250.0000m  -67.5000m   51.9164u   26.0332u 
  113.09524f -250.0000m  -65.0000m   51.9426u   26.0401u 
  114.28571f -250.0000m  -62.5000m   51.9688u   26.0469u 
  115.47619f -250.0000m  -60.0000m   51.9950u   26.0538u 
  116.66667f -250.0000m  -57.5000m   52.0211u   26.0607u 
  117.85714f -250.0000m  -55.0000m   52.0473u   26.0676u 
  119.04762f -250.0000m  -52.5000m   52.0735u   26.0744u 
  120.23810f -250.0000m  -50.0000m   52.0989u   26.0810u 
  121.42857f -250.0000m  -47.5000m   52.1098u   26.0829u 
  122.61905f -250.0000m  -45.0000m   52.1207u   26.0847u 
  123.80952f -250.0000m  -42.5000m   52.1316u   26.0866u 
  125.00000f -250.0000m  -40.0000m   52.1425u   26.0884u 
  126.19048f -250.0000m  -37.5000m   52.1534u   26.0903u 
  127.38095f -250.0000m  -35.0000m   52.1643u   26.0922u 
  128.57143f -250.0000m  -32.5000m   52.1752u   26.0940u 
  129.76190f -250.0000m  -30.0000m   52.1861u   26.0959u 
  130.95238f -250.0000m  -27.5000m   52.1970u   26.0977u 
  132.14286f -250.0000m  -25.0000m   52.2079u   26.0996u 
  133.33333f -250.0000m  -22.5000m   52.2188u   26.1014u 
  134.52381f -250.0000m  -20.0000m   52.2297u   26.1033u 
  135.71429f -250.0000m  -17.5000m   52.2406u   26.1051u 
  136.90476f -250.0000m  -15.0000m   52.2515u   26.1070u 
  138.09524f -250.0000m  -12.5000m   52.2624u   26.1088u 
  139.28571f -250.0000m  -10.0000m   52.2733u   26.1107u 
  140.47619f -250.0000m   -7.5000m   52.2842u   26.1125u 
  141.66667f -250.0000m   -5.0000m   52.2951u   26.1144u 
  142.85714f -250.0000m   -2.5000m   52.3060u   26.1162u 
  144.04762f -250.0000m   36.4292a   52.3169u   26.1181u 
  145.23810f -250.0000m    2.5000m   52.3278u   26.1199u 
  146.42857f -250.0000m    5.0000m   52.3341u   26.1204u 
  147.61905f -250.0000m    7.5000m   52.3403u   26.1209u 
  148.80952f -250.0000m   10.0000m   52.3466u   26.1214u 
  150.00000f -250.0000m   12.5000m   52.3528u   26.1219u 
  151.19048f -250.0000m   15.0000m   52.3591u   26.1224u 
  152.38095f -250.0000m   17.5000m   52.3654u   26.1229u 
  153.57143f -250.0000m   20.0000m   52.3716u   26.1234u 
  154.76190f -250.0000m   22.5000m   52.3779u   26.1239u 
  155.95238f -250.0000m   25.0000m   52.3842u   26.1244u 
  157.14286f -250.0000m   27.5000m   52.3904u   26.1249u 
  158.33333f -250.0000m   30.0000m   52.3967u   26.1254u 
  159.52381f -250.0000m   32.5000m   52.4029u   26.1259u 
  160.71429f -250.0000m   35.0000m   52.4092u   26.1264u 
  161.90476f -250.0000m   37.5000m   52.4155u   26.1269u 
  163.09524f -250.0000m   40.0000m   52.4217u   26.1274u 
  164.28571f -250.0000m   42.5000m   52.4280u   26.1279u 
  165.47619f -250.0000m   45.0000m   52.4343u   26.1284u 
  166.66667f -250.0000m   47.5000m   52.4405u   26.1289u 
  167.85714f -250.0000m   50.0000m   52.4468u   26.1294u 
  169.04762f -250.0000m   52.5000m   52.4531u   26.1299u 
  170.23810f -250.0000m   55.0000m   52.4593u   26.1304u 
  171.42857f -250.0000m   57.5000m   52.4648u   26.1306u 
  172.61905f -250.0000m   60.0000m   52.4703u   26.1307u 
  173.80952f -250.0000m   62.5000m   52.4757u   26.1308u 
  175.00000f -250.0000m   65.0000m   52.4812u   26.1310u 
  176.19048f -250.0000m   67.5000m   52.4866u   26.1311u 
  177.38095f -250.0000m   70.0000m   52.4921u   26.1312u 
  178.57143f -250.0000m   72.5000m   52.4975u   26.1314u 
  179.76190f -250.0000m   75.0000m   52.5029u   26.1315u 
  180.95238f -250.0000m   77.5000m   52.5084u   26.1316u 
  182.14286f -250.0000m   80.0000m   52.5138u   26.1318u 
  183.33333f -250.0000m   82.5000m   52.5193u   26.1319u 
  184.52381f -250.0000m   85.0000m   52.5247u   26.1321u 
  185.71429f -250.0000m   87.5000m   52.5302u   26.1322u 
  186.90476f -250.0000m   90.0000m   52.5356u   26.1323u 
  188.09524f -250.0000m   92.5000m   52.5411u   26.1325u 
  189.28571f -250.0000m   95.0000m   52.5465u   26.1326u 
  190.47619f -250.0000m   97.5000m   52.5520u   26.1327u 
  191.66667f -250.0000m  100.0000m   52.5574u   26.1329u 
  192.85714f -250.0000m  102.5000m   52.5629u   26.1330u 
  194.04762f -250.0000m  105.0000m   52.5683u   26.1331u 
  195.23810f -250.0000m  107.5000m   52.5738u   26.1333u 
  196.42857f -250.0000m  110.0000m   52.5802u   26.1333u 
  197.61905f -250.0000m  112.5000m   52.5866u   26.1333u 
  198.80952f -250.0000m  115.0000m   52.5931u   26.1334u 
  200.00000f -250.0000m  117.5000m   52.5996u   26.1334u 
  201.19048f -250.0000m  120.0000m   52.6060u   26.1335u 
  202.38095f -250.0000m  122.5000m   52.6125u   26.1335u 
  203.57143f -250.0000m  125.0000m   52.6190u   26.1335u 
  204.76190f -250.0000m  127.5000m   52.6255u   26.1336u 
  205.95238f -250.0000m  130.0000m   52.6319u   26.1336u 
  207.14286f -250.0000m  132.5000m   52.6384u   26.1336u 
  208.33333f -250.0000m  135.0000m   52.6449u   26.1337u 
  209.52381f -250.0000m  137.5000m   52.6513u   26.1337u 
  210.71429f -250.0000m  140.0000m   52.6578u   26.1337u 
  211.90476f -250.0000m  142.5000m   52.6643u   26.1338u 
  213.09524f -250.0000m  145.0000m   52.6707u   26.1338u 
  214.28571f -250.0000m  147.5000m   52.6772u   26.1339u 
  215.47619f -250.0000m  150.0000m   52.6837u   26.1339u 
  216.66667f -250.0000m  152.5000m   52.6902u   26.1339u 
  217.85714f -250.0000m  155.0000m   52.6966u   26.1340u 
  219.04762f -250.0000m  157.5000m   52.7031u   26.1340u 
  220.23810f -250.0000m  160.0000m   52.7096u   26.1340u 
  221.42857f -250.0000m  162.5000m   52.7184u   26.1340u 
  222.61905f -250.0000m  165.0000m   52.7277u   26.1341u 
  223.80952f -250.0000m  167.5000m   52.7370u   26.1341u 
  225.00000f -250.0000m  170.0000m   52.7463u   26.1341u 
  226.19048f -250.0000m  172.5000m   52.7556u   26.1341u 
  227.38095f -250.0000m  175.0000m   52.7649u   26.1341u 
  228.57143f -250.0000m  177.5000m   52.7742u   26.1341u 
  229.76190f -250.0000m  180.0000m   52.7834u   26.1341u 
  230.95238f -250.0000m  182.5000m   52.7927u   26.1341u 
  232.14286f -250.0000m  185.0000m   52.8020u   26.1341u 
  233.33333f -250.0000m  187.5000m   52.8113u   26.1341u 
  234.52381f -250.0000m  190.0000m   52.8206u   26.1342u 
  235.71429f -250.0000m  192.5000m   52.8299u   26.1342u 
  236.90476f -250.0000m  195.0000m   52.8391u   26.1342u 
  238.09524f -250.0000m  197.5000m   52.8484u   26.1342u 
  239.28571f -250.0000m  200.0000m   52.8577u   26.1342u 
  240.47619f -250.0000m  202.5000m   52.8670u   26.1342u 
  241.66667f -250.0000m  205.0000m   52.8763u   26.1342u 
  242.85714f -250.0000m  207.5000m   52.8856u   26.1342u 
  244.04762f -250.0000m  210.0000m   52.8948u   26.1342u 
  245.23810f -250.0000m  212.5000m   52.9041u   26.1342u 
  246.42857f -250.0000m  215.0000m   52.9188u   26.1342u 
  247.61905f -250.0000m  217.5000m   52.9348u   26.1342u 
  248.80952f -250.0000m  220.0000m   52.9508u   26.1343u 
  250.00000f -250.0000m  222.5000m   52.9668u   26.1343u 
  251.19048f -250.0000m  225.0000m   52.9828u   26.1343u 
  252.38095f -250.0000m  227.5000m   52.9988u   26.1343u 
  253.57143f -250.0000m  230.0000m   53.0148u   26.1343u 
  254.76190f -250.0000m  232.5000m   53.0308u   26.1343u 
  255.95238f -250.0000m  235.0000m   53.0467u   26.1343u 
  257.14286f -250.0000m  237.5000m   53.0627u   26.1343u 
  258.33333f -250.0000m  240.0000m   53.0787u   26.1343u 
  259.52381f -250.0000m  242.5000m   53.0947u   26.1343u 
  260.71429f -250.0000m  245.0000m   53.1107u   26.1343u 
  261.90476f -250.0000m  247.5000m   53.1267u   26.1343u 
  263.09524f -250.0000m  250.0000m   53.1427u   26.1343u 
  264.28571f -250.0000m  252.5000m   53.1587u   26.1343u 
  265.47619f -250.0000m  255.0000m   53.1747u   26.1343u 
  266.66667f -250.0000m  257.5000m   53.1907u   26.1343u 
  267.85714f -250.0000m  260.0000m   53.2067u   26.1343u 
  269.04762f -250.0000m  262.5000m   53.2226u   26.1343u 
  270.23810f -250.0000m  265.0000m   53.2386u   26.1343u 
  271.42857f -250.0000m  267.5000m   53.2710u   26.1343u 
  272.61905f -250.0000m  270.0000m   53.3086u   26.1343u 
  273.80952f -250.0000m  272.5000m   53.3463u   26.1343u 
  275.00000f -250.0000m  275.0000m   53.3839u   26.1343u 
  276.19048f -250.0000m  277.5000m   53.4216u   26.1343u 
  277.38095f -250.0000m  280.0000m   53.4592u   26.1343u 
  278.57143f -250.0000m  282.5000m   53.4969u   26.1343u 
  279.76190f -250.0000m  285.0000m   53.5345u   26.1343u 
  280.95238f -250.0000m  287.5000m   53.5722u   26.1343u 
  282.14286f -250.0000m  290.0000m   53.6098u   26.1343u 
  283.33333f -250.0000m  292.5000m   53.6474u   26.1343u 
  284.52381f -250.0000m  295.0000m   53.6851u   26.1343u 
  285.71429f -250.0000m  297.5000m   53.7227u   26.1343u 
  286.90476f -250.0000m  300.0000m   53.7604u   26.1343u 
  288.09524f -250.0000m  302.5000m   53.7980u   26.1343u 
  289.28571f -250.0000m  305.0000m   53.8357u   26.1343u 
  290.47619f -250.0000m  307.5000m   53.8733u   26.1343u 
  291.66667f -250.0000m  310.0000m   53.9110u   26.1343u 
  292.85714f -250.0000m  312.5000m   53.9486u   26.1343u 
  294.04762f -250.0000m  315.0000m   53.9863u   26.1343u 
  295.23810f -250.0000m  317.5000m   54.0239u   26.1343u 
  296.42857f -250.0000m  320.0000m   54.1231u   26.1343u 
  297.61905f -250.0000m  322.5000m   54.2480u   26.1343u 
  298.80952f -250.0000m  325.0000m   54.3729u   26.1343u 
  300.00000f -250.0000m  327.5000m   54.4978u   26.1343u 
  301.19048f -250.0000m  330.0000m   54.6227u   26.1343u 
  302.38095f -250.0000m  332.5000m   54.7476u   26.1343u 
  303.57143f -250.0000m  335.0000m   54.8725u   26.1343u 
  304.76190f -250.0000m  337.5000m   54.9974u   26.1343u 
  305.95238f -250.0000m  340.0000m   55.1222u   26.1343u 
  307.14286f -250.0000m  342.5000m   55.2471u   26.1343u 
  308.33333f -250.0000m  345.0000m   55.3720u   26.1343u 
  309.52381f -250.0000m  347.5000m   55.4969u   26.1343u 
  310.71429f -250.0000m  350.0000m   55.6218u   26.1343u 
  311.90476f -250.0000m  352.5000m   55.7467u   26.1343u 
  313.09524f -250.0000m  355.0000m   55.8716u   26.1343u 
  314.28571f -250.0000m  357.5000m   55.9965u   26.1343u 
  315.47619f -250.0000m  360.0000m   56.1214u   26.1343u 
  316.66667f -250.0000m  362.5000m   56.2462u   26.1343u 
  317.85714f -250.0000m  365.0000m   56.3711u   26.1343u 
  319.04762f -250.0000m  367.5000m   56.4960u   26.1343u 
  320.23810f -250.0000m  370.0000m   56.6209u   26.1343u 
  321.42857f -250.0000m  372.5000m   56.7999u   26.1343u 
  322.61905f -250.0000m  375.0000m   57.0073u   26.1343u 
  323.80952f -250.0000m  377.5000m   57.2148u   26.1343u 
  325.00000f -250.0000m  380.0000m   57.4222u   26.1343u 
  326.19048f -250.0000m  382.5000m   57.6296u   26.1343u 
  327.38095f -250.0000m  385.0000m   57.8370u   26.1343u 
  328.57143f -250.0000m  387.5000m   58.0444u   26.1343u 
  329.76190f -250.0000m  390.0000m   58.2518u   26.1343u 
  330.95238f -250.0000m  392.5000m   58.4592u   26.1343u 
  332.14286f -250.0000m  395.0000m   58.6667u   26.1343u 
  333.33333f -250.0000m  397.5000m   58.8741u   26.1343u 
  334.52381f -250.0000m  400.0000m   59.0815u   26.1343u 
  335.71429f -250.0000m  402.5000m   59.2889u   26.1343u 
  336.90476f -250.0000m  405.0000m   59.4963u   26.1343u 
  338.09524f -250.0000m  407.5000m   59.7037u   26.1343u 
  339.28571f -250.0000m  410.0000m   59.9111u   26.1343u 
  340.47619f -250.0000m  412.5000m   60.1186u   26.1343u 
  341.66667f -250.0000m  415.0000m   60.3260u   26.1343u 
  342.85714f -250.0000m  417.5000m   60.5334u   26.1343u 
  344.04762f -250.0000m  420.0000m   60.7408u   26.1343u 
  345.23810f -250.0000m  422.5000m   60.9482u   26.1343u 
  346.42857f -250.0000m  425.0000m   61.1052u   26.1343u 
  347.61905f -250.0000m  427.5000m   61.2295u   26.1343u 
  348.80952f -250.0000m  430.0000m   61.3538u   26.1343u 
  350.00000f -250.0000m  432.5000m   61.4780u   26.1343u 
  351.19048f -250.0000m  435.0000m   61.6023u   26.1343u 
  352.38095f -250.0000m  437.5000m   61.7265u   26.1343u 
  353.57143f -250.0000m  440.0000m   61.8508u   26.1343u 
  354.76190f -250.0000m  442.5000m   61.9751u   26.1343u 
  355.95238f -250.0000m  445.0000m   62.0993u   26.1343u 
  357.14286f -250.0000m  447.5000m   62.2236u   26.1343u 
  358.33333f -250.0000m  450.0000m   62.3478u   26.1343u 
  359.52381f -250.0000m  452.5000m   62.4721u   26.1343u 
  360.71429f -250.0000m  455.0000m   62.5964u   26.1343u 
  361.90476f -250.0000m  457.5000m   62.7206u   26.1343u 
  363.09524f -250.0000m  460.0000m   62.8449u   26.1343u 
  364.28571f -250.0000m  462.5000m   62.9692u   26.1343u 
  365.47619f -250.0000m  465.0000m   63.0934u   26.1343u 
  366.66667f -250.0000m  467.5000m   63.2177u   26.1343u 
  367.85714f -250.0000m  470.0000m   63.3419u   26.1343u 
  369.04762f -250.0000m  472.5000m   63.4662u   26.1343u 
  370.23810f -250.0000m  475.0000m   63.5905u   26.1343u 
  371.42857f -250.0000m  477.5000m   63.6842u   26.1343u 
  372.61905f -250.0000m  480.0000m   63.7535u   26.1343u 
  373.80952f -250.0000m  482.5000m   63.8228u   26.1343u 
  375.00000f -250.0000m  485.0000m   63.8921u   26.1343u 
  376.19048f -250.0000m  487.5000m   63.9614u   26.1343u 
  377.38095f -250.0000m  490.0000m   64.0308u   26.1343u 
  378.57143f -250.0000m  492.5000m   64.1001u   26.1343u 
  379.76190f -250.0000m  495.0000m   64.1694u   26.1343u 
  380.95238f -250.0000m  497.5000m   64.2387u   26.1343u 
  382.14286f -250.0000m  500.0000m   64.3080u   26.1343u 
  383.33333f -250.0000m  502.5000m   64.3773u   26.1343u 
  384.52381f -250.0000m  505.0000m   64.4466u   26.1343u 
  385.71429f -250.0000m  507.5000m   64.5160u   26.1343u 
  386.90476f -250.0000m  510.0000m   64.5853u   26.1343u 
  388.09524f -250.0000m  512.5000m   64.6546u   26.1343u 
  389.28571f -250.0000m  515.0000m   64.7239u   26.1343u 
  390.47619f -250.0000m  517.5000m   64.7932u   26.1343u 
  391.66667f -250.0000m  520.0000m   64.8625u   26.1343u 
  392.85714f -250.0000m  522.5000m   64.9319u   26.1343u 
  394.04762f -250.0000m  525.0000m   65.0012u   26.1343u 
  395.23810f -250.0000m  527.5000m   65.0705u   26.1343u 
  396.42857f -250.0000m  530.0000m   65.1269u   26.1343u 
  397.61905f -250.0000m  532.5000m   65.1707u   26.1343u 
  398.80952f -250.0000m  535.0000m   65.2145u   26.1343u 
  400.00000f -250.0000m  537.5000m   65.2583u   26.1343u 
  401.19048f -250.0000m  540.0000m   65.3021u   26.1343u 
  402.38095f -250.0000m  542.5000m   65.3459u   26.1343u 
  403.57143f -250.0000m  545.0000m   65.3897u   26.1343u 
  404.76190f -250.0000m  547.5000m   65.4335u   26.1343u 
  405.95238f -250.0000m  550.0000m   65.4773u   26.1343u 
  407.14286f -250.0000m  552.5000m   65.5211u   26.1343u 
  408.33333f -250.0000m  555.0000m   65.5649u   26.1343u 
  409.52381f -250.0000m  557.5000m   65.6087u   26.1343u 
  410.71429f -250.0000m  560.0000m   65.6525u   26.1343u 
  411.90476f -250.0000m  562.5000m   65.6963u   26.1343u 
  413.09524f -250.0000m  565.0000m   65.7401u   26.1343u 
  414.28571f -250.0000m  567.5000m   65.7839u   26.1343u 
  415.47619f -250.0000m  570.0000m   65.8277u   26.1343u 
  416.66667f -250.0000m  572.5000m   65.8715u   26.1343u 
  417.85714f -250.0000m  575.0000m   65.9153u   26.1343u 
  419.04762f -250.0000m  577.5000m   65.9591u   26.1343u 
  420.23810f -250.0000m  580.0000m   66.0029u   26.1343u 
  421.42857f -250.0000m  582.5000m   66.0389u   26.1343u 
  422.61905f -250.0000m  585.0000m   66.0655u   26.1343u 
  423.80952f -250.0000m  587.5000m   66.0921u   26.1343u 
  425.00000f -250.0000m  590.0000m   66.1187u   26.1343u 
  426.19048f -250.0000m  592.5000m   66.1453u   26.1343u 
  427.38095f -250.0000m  595.0000m   66.1719u   26.1343u 
  428.57143f -250.0000m  597.5000m   66.1985u   26.1343u 
  429.76190f -250.0000m  600.0000m   66.2250u   26.1343u 
  430.95238f -250.0000m  602.5000m   66.2516u   26.1343u 
  432.14286f -250.0000m  605.0000m   66.2782u   26.1343u 
  433.33333f -250.0000m  607.5000m   66.3048u   26.1343u 
  434.52381f -250.0000m  610.0000m   66.3314u   26.1343u 
  435.71429f -250.0000m  612.5000m   66.3580u   26.1343u 
  436.90476f -250.0000m  615.0000m   66.3846u   26.1343u 
  438.09524f -250.0000m  617.5000m   66.4112u   26.1343u 
  439.28571f -250.0000m  620.0000m   66.4378u   26.1343u 
  440.47619f -250.0000m  622.5000m   66.4644u   26.1343u 
  441.66667f -250.0000m  625.0000m   66.4910u   26.1343u 
  442.85714f -250.0000m  627.5000m   66.5176u   26.1343u 
  444.04762f -250.0000m  630.0000m   66.5442u   26.1343u 
  445.23810f -250.0000m  632.5000m   66.5708u   26.1343u 
  446.42857f -250.0000m  635.0000m   66.5928u   26.1343u 
  447.61905f -250.0000m  637.5000m   66.6083u   26.1343u 
  448.80952f -250.0000m  640.0000m   66.6238u   26.1343u 
  450.00000f -250.0000m  642.5000m   66.6392u   26.1343u 
  451.19048f -250.0000m  645.0000m   66.6547u   26.1343u 
  452.38095f -250.0000m  647.5000m   66.6702u   26.1343u 
  453.57143f -250.0000m  650.0000m   66.6857u   26.1343u 
  454.76190f -250.0000m  652.5000m   66.7011u   26.1343u 
  455.95238f -250.0000m  655.0000m   66.7166u   26.1343u 
  457.14286f -250.0000m  657.5000m   66.7321u   26.1343u 
  458.33333f -250.0000m  660.0000m   66.7475u   26.1343u 
  459.52381f -250.0000m  662.5000m   66.7630u   26.1343u 
  460.71429f -250.0000m  665.0000m   66.7785u   26.1343u 
  461.90476f -250.0000m  667.5000m   66.7939u   26.1343u 
  463.09524f -250.0000m  670.0000m   66.8094u   26.1343u 
  464.28571f -250.0000m  672.5000m   66.8249u   26.1343u 
  465.47619f -250.0000m  675.0000m   66.8403u   26.1343u 
  466.66667f -250.0000m  677.5000m   66.8558u   26.1343u 
  467.85714f -250.0000m  680.0000m   66.8713u   26.1343u 
  469.04762f -250.0000m  682.5000m   66.8867u   26.1343u 
  470.23810f -250.0000m  685.0000m   66.9022u   26.1343u 
  471.42857f -250.0000m  687.5000m   66.9163u   26.1343u 
  472.61905f -250.0000m  690.0000m   66.9280u   26.1343u 
  473.80952f -250.0000m  692.5000m   66.9396u   26.1343u 
  475.00000f -250.0000m  695.0000m   66.9513u   26.1343u 
  476.19048f -250.0000m  697.5000m   66.9630u   26.1343u 
  477.38095f -250.0000m  700.0000m   66.9746u   26.1343u 
  478.57143f -250.0000m  702.5000m   66.9863u   26.1343u 
  479.76190f -250.0000m  705.0000m   66.9979u   26.1343u 
  480.95238f -250.0000m  707.5000m   67.0096u   26.1343u 
  482.14286f -250.0000m  710.0000m   67.0213u   26.1343u 
  483.33333f -250.0000m  712.5000m   67.0329u   26.1343u 
  484.52381f -250.0000m  715.0000m   67.0446u   26.1343u 
  485.71429f -250.0000m  717.5000m   67.0563u   26.1343u 
  486.90476f -250.0000m  720.0000m   67.0679u   26.1343u 
  488.09524f -250.0000m  722.5000m   67.0796u   26.1343u 
  489.28571f -250.0000m  725.0000m   67.0912u   26.1343u 
  490.47619f -250.0000m  727.5000m   67.1029u   26.1343u 
  491.66667f -250.0000m  730.0000m   67.1146u   26.1343u 
  492.85714f -250.0000m  732.5000m   67.1262u   26.1343u 
  494.04762f -250.0000m  735.0000m   67.1379u   26.1343u 
  495.23810f -250.0000m  737.5000m   67.1496u   26.1343u 
  496.42857f -250.0000m  740.0000m   67.1616u   26.1343u 
  497.61905f -250.0000m  742.5000m   67.1745u   26.1343u 
  498.80952f -250.0000m  745.0000m   67.1875u   26.1343u 
  500.00000f -250.0000m  747.5000m   67.2004u   26.1343u 
  501.19048f -250.0000m  750.0000m   67.2133u   26.1343u 
y
x

 time         param     
             i_mp       
    0.        -52.7617u 
    1.19048f  -52.7617u 
    2.38095f  -51.4998u 
    3.57143f  -50.2679u 
    4.76190f  -49.1686u 
    5.95238f  -48.0840u 
    7.14286f  -46.9995u 
    8.33333f  -46.1172u 
    9.52381f  -45.3431u 
   10.71429f  -44.5691u 
   11.90476f  -43.7951u 
   13.09524f  -43.0210u 
   14.28571f  -42.2470u 
   15.47619f  -41.4729u 
   16.66667f  -40.6989u 
   17.85714f  -39.9249u 
   19.04762f  -39.1508u 
   20.23810f  -38.4756u 
   21.42857f  -38.0874u 
   22.61905f  -37.6993u 
   23.80952f  -37.3111u 
   25.00000f  -36.9229u 
   26.19048f  -36.5348u 
   27.38095f  -36.1466u 
   28.57143f  -35.7585u 
   29.76190f  -35.3703u 
   30.95238f  -34.9822u 
   32.14286f  -34.5940u 
   33.33333f  -34.2059u 
   34.52381f  -33.8177u 
   35.71429f  -33.4296u 
   36.90476f  -33.0414u 
   38.09524f  -32.6533u 
   39.28571f  -32.2651u 
   40.47619f  -31.8769u 
   41.66667f  -31.4888u 
   42.85714f  -31.1006u 
   44.04762f  -30.7125u 
   45.23810f  -30.3711u 
   46.42857f  -30.2100u 
   47.61905f  -30.0490u 
   48.80952f  -29.8879u 
   50.00000f  -29.7268u 
   51.19048f  -29.5657u 
   52.38095f  -29.4047u 
   53.57143f  -29.2436u 
   54.76190f  -29.0825u 
   55.95238f  -28.9215u 
   57.14286f  -28.7604u 
   58.33333f  -28.5993u 
   59.52381f  -28.4383u 
   60.71429f  -28.2772u 
   61.90476f  -28.1161u 
   63.09524f  -27.9551u 
   64.28571f  -27.7940u 
   65.47619f  -27.6329u 
   66.66667f  -27.4718u 
   67.85714f  -27.3108u 
   69.04762f  -27.1497u 
   70.23810f  -27.0005u 
   71.42857f  -26.9158u 
   72.61905f  -26.8311u 
   73.80952f  -26.7463u 
   75.00000f  -26.6616u 
   76.19048f  -26.5768u 
   77.38095f  -26.4921u 
   78.57143f  -26.4074u 
   79.76190f  -26.3226u 
   80.95238f  -26.2379u 
   82.14286f  -26.1531u 
   83.33333f  -26.0684u 
   84.52381f  -25.9837u 
   85.71429f  -25.8989u 
   86.90476f  -25.8142u 
   88.09524f  -25.7294u 
   89.28571f  -25.6447u 
   90.47619f  -25.5600u 
   91.66667f  -25.4752u 
   92.85714f  -25.3905u 
   94.04762f  -25.3057u 
   95.23810f  -25.2237u 
   96.42857f  -25.1644u 
   97.61905f  -25.1051u 
   98.80952f  -25.0457u 
  100.00000f  -24.9864u 
  101.19048f  -24.9271u 
  102.38095f  -24.8678u 
  103.57143f  -24.8085u 
  104.76190f  -24.7492u 
  105.95238f  -24.6899u 
  107.14286f  -24.6305u 
  108.33333f  -24.5712u 
  109.52381f  -24.5119u 
  110.71429f  -24.4526u 
  111.90476f  -24.3933u 
  113.09524f  -24.3340u 
  114.28571f  -24.2747u 
  115.47619f  -24.2153u 
  116.66667f  -24.1560u 
  117.85714f  -24.0967u 
  119.04762f  -24.0374u 
  120.23810f  -23.9785u 
  121.42857f  -23.9267u 
  122.61905f  -23.8750u 
  123.80952f  -23.8232u 
  125.00000f  -23.7714u 
  126.19048f  -23.7196u 
  127.38095f  -23.6679u 
  128.57143f  -23.6161u 
  129.76190f  -23.5643u 
  130.95238f  -23.5125u 
  132.14286f  -23.4607u 
  133.33333f  -23.4090u 
  134.52381f  -23.3572u 
  135.71429f  -23.3054u 
  136.90476f  -23.2536u 
  138.09524f  -23.2019u 
  139.28571f  -23.1501u 
  140.47619f  -23.0983u 
  141.66667f  -23.0465u 
  142.85714f  -22.9948u 
  144.04762f  -22.9430u 
  145.23810f  -22.8912u 
  146.42857f  -22.8402u 
  147.61905f  -22.7892u 
  148.80952f  -22.7382u 
  150.00000f  -22.6871u 
  151.19048f  -22.6361u 
  152.38095f  -22.5851u 
  153.57143f  -22.5341u 
  154.76190f  -22.4831u 
  155.95238f  -22.4320u 
  157.14286f  -22.3810u 
  158.33333f  -22.3300u 
  159.52381f  -22.2790u 
  160.71429f  -22.2280u 
  161.90476f  -22.1770u 
  163.09524f  -22.1259u 
  164.28571f  -22.0749u 
  165.47619f  -22.0239u 
  166.66667f  -21.9729u 
  167.85714f  -21.9219u 
  169.04762f  -21.8708u 
  170.23810f  -21.8198u 
  171.42857f  -21.7666u 
  172.61905f  -21.7132u 
  173.80952f  -21.6598u 
  175.00000f  -21.6064u 
  176.19048f  -21.5531u 
  177.38095f  -21.4997u 
  178.57143f  -21.4463u 
  179.76190f  -21.3930u 
  180.95238f  -21.3396u 
  182.14286f  -21.2862u 
  183.33333f  -21.2329u 
  184.52381f  -21.1795u 
  185.71429f  -21.1261u 
  186.90476f  -21.0728u 
  188.09524f  -21.0194u 
  189.28571f  -20.9660u 
  190.47619f  -20.9127u 
  191.66667f  -20.8593u 
  192.85714f  -20.8059u 
  194.04762f  -20.7525u 
  195.23810f  -20.6992u 
  196.42857f  -20.6417u 
  197.61905f  -20.5837u 
  198.80952f  -20.5258u 
  200.00000f  -20.4679u 
  201.19048f  -20.4100u 
  202.38095f  -20.3520u 
  203.57143f  -20.2941u 
  204.76190f  -20.2362u 
  205.95238f  -20.1782u 
  207.14286f  -20.1203u 
  208.33333f  -20.0624u 
  209.52381f  -20.0044u 
  210.71429f  -19.9465u 
  211.90476f  -19.8886u 
  213.09524f  -19.8306u 
  214.28571f  -19.7727u 
  215.47619f  -19.7148u 
  216.66667f  -19.6568u 
  217.85714f  -19.5989u 
  219.04762f  -19.5410u 
  220.23810f  -19.4831u 
  221.42857f  -19.4188u 
  222.61905f  -19.3534u 
  223.80952f  -19.2880u 
  225.00000f  -19.2226u 
  226.19048f  -19.1573u 
  227.38095f  -19.0919u 
  228.57143f  -19.0265u 
  229.76190f  -18.9612u 
  230.95238f  -18.8958u 
  232.14286f  -18.8304u 
  233.33333f  -18.7651u 
  234.52381f  -18.6997u 
  235.71429f  -18.6343u 
  236.90476f  -18.5689u 
  238.09524f  -18.5036u 
  239.28571f  -18.4382u 
  240.47619f  -18.3728u 
  241.66667f  -18.3075u 
  242.85714f  -18.2421u 
  244.04762f  -18.1767u 
  245.23810f  -18.1113u 
  246.42857f  -18.0349u 
  247.61905f  -17.9558u 
  248.80952f  -17.8768u 
  250.00000f  -17.7977u 
  251.19048f  -17.7186u 
  252.38095f  -17.6395u 
  253.57143f  -17.5604u 
  254.76190f  -17.4814u 
  255.95238f  -17.4023u 
  257.14286f  -17.3232u 
  258.33333f  -17.2441u 
  259.52381f  -17.1650u 
  260.71429f  -17.0860u 
  261.90476f  -17.0069u 
  263.09524f  -16.9278u 
  264.28571f  -16.8487u 
  265.47619f  -16.7696u 
  266.66667f  -16.6906u 
  267.85714f  -16.6115u 
  269.04762f  -16.5324u 
  270.23810f  -16.4533u 
  271.42857f  -16.3464u 
  272.61905f  -16.2305u 
  273.80952f  -16.1145u 
  275.00000f  -15.9986u 
  276.19048f  -15.8827u 
  277.38095f  -15.7668u 
  278.57143f  -15.6509u 
  279.76190f  -15.5349u 
  280.95238f  -15.4190u 
  282.14286f  -15.3031u 
  283.33333f  -15.1872u 
  284.52381f  -15.0712u 
  285.71429f  -14.9553u 
  286.90476f  -14.8394u 
  288.09524f  -14.7235u 
  289.28571f  -14.6075u 
  290.47619f  -14.4916u 
  291.66667f  -14.3757u 
  292.85714f  -14.2598u 
  294.04762f  -14.1439u 
  295.23810f  -14.0279u 
  296.42857f  -13.8104u 
  297.61905f  -13.5506u 
  298.80952f  -13.2907u 
  300.00000f  -13.0309u 
  301.19048f  -12.7710u 
  302.38095f  -12.5112u 
  303.57143f  -12.2513u 
  304.76190f  -11.9915u 
  305.95238f  -11.7316u 
  307.14286f  -11.4718u 
  308.33333f  -11.2120u 
  309.52381f  -10.9521u 
  310.71429f  -10.6923u 
  311.90476f  -10.4324u 
  313.09524f  -10.1726u 
  314.28571f   -9.9127u 
  315.47619f   -9.6529u 
  316.66667f   -9.3930u 
  317.85714f   -9.1332u 
  319.04762f   -8.8734u 
  320.23810f   -8.6135u 
  321.42857f   -8.1967u 
  322.61905f   -7.6977u 
  323.80952f   -7.1986u 
  325.00000f   -6.6995u 
  326.19048f   -6.2005u 
  327.38095f   -5.7014u 
  328.57143f   -5.2023u 
  329.76190f   -4.7032u 
  330.95238f   -4.2042u 
  332.14286f   -3.7051u 
  333.33333f   -3.2060u 
  334.52381f   -2.7070u 
  335.71429f   -2.2079u 
  336.90476f   -1.7088u 
  338.09524f   -1.2097u 
  339.28571f -710.6665n 
  340.47619f -211.5944n 
  341.66667f  287.4777n 
  342.85714f  786.5498n 
  344.04762f    1.2856u 
  345.23810f    1.7847u 
  346.42857f    2.3283u 
  347.61905f    2.9010u 
  348.80952f    3.4737u 
  350.00000f    4.0463u 
  351.19048f    4.6190u 
  352.38095f    5.1916u 
  353.57143f    5.7643u 
  354.76190f    6.3369u 
  355.95238f    6.9096u 
  357.14286f    7.4822u 
  358.33333f    8.0549u 
  359.52381f    8.6275u 
  360.71429f    9.2002u 
  361.90476f    9.7728u 
  363.09524f   10.3455u 
  364.28571f   10.9181u 
  365.47619f   11.4908u 
  366.66667f   12.0634u 
  367.85714f   12.6361u 
  369.04762f   13.2087u 
  370.23810f   13.7814u 
  371.42857f   14.3584u 
  372.61905f   14.9390u 
  373.80952f   15.5195u 
  375.00000f   16.1001u 
  376.19048f   16.6806u 
  377.38095f   17.2612u 
  378.57143f   17.8418u 
  379.76190f   18.4223u 
  380.95238f   19.0029u 
  382.14286f   19.5834u 
  383.33333f   20.1640u 
  384.52381f   20.7446u 
  385.71429f   21.3251u 
  386.90476f   21.9057u 
  388.09524f   22.4862u 
  389.28571f   23.0668u 
  390.47619f   23.6473u 
  391.66667f   24.2279u 
  392.85714f   24.8085u 
  394.04762f   25.3890u 
  395.23810f   25.9696u 
  396.42857f   26.5508u 
  397.61905f   27.1328u 
  398.80952f   27.7147u 
  400.00000f   28.2967u 
  401.19048f   28.8786u 
  402.38095f   29.4606u 
  403.57143f   30.0425u 
  404.76190f   30.6245u 
  405.95238f   31.2064u 
  407.14286f   31.7884u 
  408.33333f   32.3703u 
  409.52381f   32.9523u 
  410.71429f   33.5342u 
  411.90476f   34.1162u 
  413.09524f   34.6981u 
  414.28571f   35.2801u 
  415.47619f   35.8620u 
  416.66667f   36.4440u 
  417.85714f   37.0259u 
  419.04762f   37.6079u 
  420.23810f   38.1898u 
  421.42857f   38.7720u 
  422.61905f   39.3544u 
  423.80952f   39.9369u 
  425.00000f   40.5193u 
  426.19048f   41.1017u 
  427.38095f   41.6842u 
  428.57143f   42.2666u 
  429.76190f   42.8490u 
  430.95238f   43.4315u 
  432.14286f   44.0139u 
  433.33333f   44.5963u 
  434.52381f   45.1787u 
  435.71429f   45.7612u 
  436.90476f   46.3436u 
  438.09524f   46.9260u 
  439.28571f   47.5085u 
  440.47619f   48.0909u 
  441.66667f   48.6733u 
  442.85714f   49.2558u 
  444.04762f   49.8382u 
  445.23810f   50.4206u 
  446.42857f   51.0022u 
  447.61905f   51.5825u 
  448.80952f   52.1628u 
  450.00000f   52.7430u 
  451.19048f   53.3233u 
  452.38095f   53.9036u 
  453.57143f   54.4839u 
  454.76190f   55.0642u 
  455.95238f   55.6444u 
  457.14286f   56.2247u 
  458.33333f   56.8050u 
  459.52381f   57.3853u 
  460.71429f   57.9656u 
  461.90476f   58.5459u 
  463.09524f   59.1261u 
  464.28571f   59.7064u 
  465.47619f   60.2867u 
  466.66667f   60.8670u 
  467.85714f   61.4473u 
  469.04762f   62.0275u 
  470.23810f   62.6078u 
  471.42857f   63.1870u 
  472.61905f   63.7643u 
  473.80952f   64.3416u 
  475.00000f   64.9188u 
  476.19048f   65.4961u 
  477.38095f   66.0734u 
  478.57143f   66.6506u 
  479.76190f   67.2279u 
  480.95238f   67.8052u 
  482.14286f   68.3825u 
  483.33333f   68.9597u 
  484.52381f   69.5370u 
  485.71429f   70.1143u 
  486.90476f   70.6915u 
  488.09524f   71.2688u 
  489.28571f   71.8461u 
  490.47619f   72.4233u 
  491.66667f   73.0006u 
  492.85714f   73.5779u 
  494.04762f   74.1551u 
  495.23810f   74.7324u 
  496.42857f   75.3093u 
  497.61905f   75.8854u 
  498.80952f   76.4614u 
  500.00000f   77.0375u 
  501.19048f   77.6136u 
y

          ***** job concluded

   *** data name = sweep_co , index =     2 ***

 ******
 * hao ge <haoge@usc.edu>

 ****** transient analysis tnom=  25.000 temp= 125.000 ******
x

 time         voltage    voltage    param      param     
             in         out        i_vin      i_mn       
    0.       -200.0000m -300.0000m    3.0600p   -2.5646n 
    1.19048f -200.0000m -300.0000m    3.0600p   -2.5646n 
    2.38095f -200.0000m -297.5000m    2.7837u    1.5198u 
    3.57143f -200.0000m -295.0000m    5.4931u    2.9984u 
    4.76190f -200.0000m -292.5000m    7.8782u    4.2870u 
    5.95238f -200.0000m -290.0000m   10.2273u    5.5545u 
    7.14286f -200.0000m -287.5000m   12.5763u    6.8220u 
    8.33333f -200.0000m -285.0000m   14.4416u    7.8120u 
    9.52381f -200.0000m -282.5000m   16.0479u    8.6535u 
   10.71429f -200.0000m -280.0000m   17.6542u    9.4950u 
   11.90476f -200.0000m -277.5000m   19.2605u   10.3365u 
   13.09524f -200.0000m -275.0000m   20.8669u   11.1780u 
   14.28571f -200.0000m -272.5000m   22.4732u   12.0195u 
   15.47619f -200.0000m -270.0000m   24.0795u   12.8611u 
   16.66667f -200.0000m -267.5000m   25.6858u   13.7026u 
   17.85714f -200.0000m -265.0000m   27.2922u   14.5441u 
   19.04762f -200.0000m -262.5000m   28.8985u   15.3856u 
   20.23810f -200.0000m -260.0000m   30.2776u   16.1017u 
   21.42857f -200.0000m -257.5000m   30.9960u   16.4530u 
   22.61905f -200.0000m -255.0000m   31.7143u   16.8042u 
   23.80952f -200.0000m -252.5000m   32.4327u   17.1555u 
   25.00000f -200.0000m -250.0000m   33.1511u   17.5068u 
   26.19048f -200.0000m -247.5000m   33.8695u   17.8581u 
   27.38095f -200.0000m -245.0000m   34.5879u   18.2094u 
   28.57143f -200.0000m -242.5000m   35.3063u   18.5607u 
   29.76190f -200.0000m -240.0000m   36.0246u   18.9119u 
   30.95238f -200.0000m -237.5000m   36.7430u   19.2632u 
   32.14286f -200.0000m -235.0000m   37.4614u   19.6145u 
   33.33333f -200.0000m -232.5000m   38.1798u   19.9658u 
   34.52381f -200.0000m -230.0000m   38.8982u   20.3171u 
   35.71429f -200.0000m -227.5000m   39.6166u   20.6684u 
   36.90476f -200.0000m -225.0000m   40.3349u   21.0196u 
   38.09524f -200.0000m -222.5000m   41.0533u   21.3709u 
   39.28571f -200.0000m -220.0000m   41.7717u   21.7222u 
   40.47619f -200.0000m -217.5000m   42.4901u   22.0735u 
   41.66667f -200.0000m -215.0000m   43.2085u   22.4248u 
   42.85714f -200.0000m -212.5000m   43.9269u   22.7761u 
   44.04762f -200.0000m -210.0000m   44.6452u   23.1273u 
   45.23810f -200.0000m -207.5000m   45.2619u   23.4258u 
   46.42857f -200.0000m -205.0000m   45.4862u   23.5205u 
   47.61905f -200.0000m -202.5000m   45.7105u   23.6151u 
   48.80952f -200.0000m -200.0000m   45.9349u   23.7098u 
   50.00000f -200.0000m -197.5000m   46.1592u   23.8045u 
   51.19048f -200.0000m -195.0000m   46.3835u   23.8992u 
   52.38095f -200.0000m -192.5000m   46.6079u   23.9939u 
   53.57143f -200.0000m -190.0000m   46.8322u   24.0885u 
   54.76190f -200.0000m -187.5000m   47.0565u   24.1832u 
   55.95238f -200.0000m -185.0000m   47.2808u   24.2779u 
   57.14286f -200.0000m -182.5000m   47.5052u   24.3726u 
   58.33333f -200.0000m -180.0000m   47.7295u   24.4673u 
   59.52381f -200.0000m -177.5000m   47.9538u   24.5619u 
   60.71429f -200.0000m -175.0000m   48.1781u   24.6566u 
   61.90476f -200.0000m -172.5000m   48.4025u   24.7513u 
   63.09524f -200.0000m -170.0000m   48.6268u   24.8460u 
   64.28571f -200.0000m -167.5000m   48.8511u   24.9407u 
   65.47619f -200.0000m -165.0000m   49.0754u   25.0353u 
   66.66667f -200.0000m -162.5000m   49.2998u   25.1300u 
   67.85714f -200.0000m -160.0000m   49.5241u   25.2247u 
   69.04762f -200.0000m -157.5000m   49.7484u   25.3194u 
   70.23810f -200.0000m -155.0000m   49.9491u   25.4033u 
   71.42857f -200.0000m -152.5000m   50.0219u   25.4288u 
   72.61905f -200.0000m -150.0000m   50.0947u   25.4543u 
   73.80952f -200.0000m -147.5000m   50.1676u   25.4798u 
   75.00000f -200.0000m -145.0000m   50.2404u   25.5053u 
   76.19048f -200.0000m -142.5000m   50.3132u   25.5308u 
   77.38095f -200.0000m -140.0000m   50.3860u   25.5563u 
   78.57143f -200.0000m -137.5000m   50.4588u   25.5818u 
   79.76190f -200.0000m -135.0000m   50.5316u   25.6073u 
   80.95238f -200.0000m -132.5000m   50.6044u   25.6328u 
   82.14286f -200.0000m -130.0000m   50.6772u   25.6584u 
   83.33333f -200.0000m -127.5000m   50.7501u   25.6839u 
   84.52381f -200.0000m -125.0000m   50.8229u   25.7094u 
   85.71429f -200.0000m -122.5000m   50.8957u   25.7349u 
   86.90476f -200.0000m -120.0000m   50.9685u   25.7604u 
   88.09524f -200.0000m -117.5000m   51.0413u   25.7859u 
   89.28571f -200.0000m -115.0000m   51.1141u   25.8114u 
   90.47619f -200.0000m -112.5000m   51.1869u   25.8369u 
   91.66667f -200.0000m -110.0000m   51.2598u   25.8624u 
   92.85714f -200.0000m -107.5000m   51.3326u   25.8879u 
   94.04762f -200.0000m -105.0000m   51.4054u   25.9135u 
   95.23810f -200.0000m -102.5000m   51.4731u   25.9370u 
   96.42857f -200.0000m -100.0000m   51.4983u   25.9439u 
   97.61905f -200.0000m  -97.5000m   51.5235u   25.9507u 
   98.80952f -200.0000m  -95.0000m   51.5486u   25.9576u 
  100.00000f -200.0000m  -92.5000m   51.5738u   25.9645u 
  101.19048f -200.0000m  -90.0000m   51.5989u   25.9714u 
  102.38095f -200.0000m  -87.5000m   51.6241u   25.9782u 
  103.57143f -200.0000m  -85.0000m   51.6493u   25.9851u 
  104.76190f -200.0000m  -82.5000m   51.6744u   25.9920u 
  105.95238f -200.0000m  -80.0000m   51.6996u   25.9989u 
  107.14286f -200.0000m  -77.5000m   51.7247u   26.0057u 
  108.33333f -200.0000m  -75.0000m   51.7499u   26.0126u 
  109.52381f -200.0000m  -72.5000m   51.7751u   26.0195u 
  110.71429f -200.0000m  -70.0000m   51.8002u   26.0263u 
  111.90476f -200.0000m  -67.5000m   51.8254u   26.0332u 
  113.09524f -200.0000m  -65.0000m   51.8505u   26.0401u 
  114.28571f -200.0000m  -62.5000m   51.8757u   26.0470u 
  115.47619f -200.0000m  -60.0000m   51.9009u   26.0538u 
  116.66667f -200.0000m  -57.5000m   51.9260u   26.0607u 
  117.85714f -200.0000m  -55.0000m   51.9512u   26.0676u 
  119.04762f -200.0000m  -52.5000m   51.9763u   26.0745u 
  120.23810f -200.0000m  -50.0000m   52.0006u   26.0811u 
  121.42857f -200.0000m  -47.5000m   52.0106u   26.0829u 
  122.61905f -200.0000m  -45.0000m   52.0205u   26.0848u 
  123.80952f -200.0000m  -42.5000m   52.0304u   26.0866u 
  125.00000f -200.0000m  -40.0000m   52.0403u   26.0885u 
  126.19048f -200.0000m  -37.5000m   52.0502u   26.0903u 
  127.38095f -200.0000m  -35.0000m   52.0601u   26.0922u 
  128.57143f -200.0000m  -32.5000m   52.0700u   26.0940u 
  129.76190f -200.0000m  -30.0000m   52.0799u   26.0959u 
  130.95238f -200.0000m  -27.5000m   52.0898u   26.0977u 
  132.14286f -200.0000m  -25.0000m   52.0997u   26.0996u 
  133.33333f -200.0000m  -22.5000m   52.1096u   26.1014u 
  134.52381f -200.0000m  -20.0000m   52.1195u   26.1033u 
  135.71429f -200.0000m  -17.5000m   52.1294u   26.1051u 
  136.90476f -200.0000m  -15.0000m   52.1393u   26.1070u 
  138.09524f -200.0000m  -12.5000m   52.1492u   26.1088u 
  139.28571f -200.0000m  -10.0000m   52.1591u   26.1107u 
  140.47619f -200.0000m   -7.5000m   52.1690u   26.1125u 
  141.66667f -200.0000m   -5.0000m   52.1789u   26.1144u 
  142.85714f -200.0000m   -2.5000m   52.1889u   26.1162u 
  144.04762f -200.0000m   36.4292a   52.1988u   26.1181u 
  145.23810f -200.0000m    2.5000m   52.2086u   26.1199u 
  146.42857f -200.0000m    5.0000m   52.2138u   26.1204u 
  147.61905f -200.0000m    7.5000m   52.2189u   26.1209u 
  148.80952f -200.0000m   10.0000m   52.2241u   26.1214u 
  150.00000f -200.0000m   12.5000m   52.2292u   26.1219u 
  151.19048f -200.0000m   15.0000m   52.2344u   26.1224u 
  152.38095f -200.0000m   17.5000m   52.2395u   26.1229u 
  153.57143f -200.0000m   20.0000m   52.2447u   26.1234u 
  154.76190f -200.0000m   22.5000m   52.2498u   26.1239u 
  155.95238f -200.0000m   25.0000m   52.2550u   26.1244u 
  157.14286f -200.0000m   27.5000m   52.2601u   26.1249u 
  158.33333f -200.0000m   30.0000m   52.2653u   26.1254u 
  159.52381f -200.0000m   32.5000m   52.2704u   26.1259u 
  160.71429f -200.0000m   35.0000m   52.2755u   26.1264u 
  161.90476f -200.0000m   37.5000m   52.2807u   26.1269u 
  163.09524f -200.0000m   40.0000m   52.2858u   26.1274u 
  164.28571f -200.0000m   42.5000m   52.2910u   26.1279u 
  165.47619f -200.0000m   45.0000m   52.2961u   26.1284u 
  166.66667f -200.0000m   47.5000m   52.3013u   26.1289u 
  167.85714f -200.0000m   50.0000m   52.3064u   26.1294u 
  169.04762f -200.0000m   52.5000m   52.3116u   26.1299u 
  170.23810f -200.0000m   55.0000m   52.3167u   26.1304u 
  171.42857f -200.0000m   57.5000m   52.3208u   26.1306u 
  172.61905f -200.0000m   60.0000m   52.3248u   26.1307u 
  173.80952f -200.0000m   62.5000m   52.3288u   26.1308u 
  175.00000f -200.0000m   65.0000m   52.3329u   26.1310u 
  176.19048f -200.0000m   67.5000m   52.3369u   26.1311u 
  177.38095f -200.0000m   70.0000m   52.3409u   26.1312u 
  178.57143f -200.0000m   72.5000m   52.3450u   26.1314u 
  179.76190f -200.0000m   75.0000m   52.3490u   26.1315u 
  180.95238f -200.0000m   77.5000m   52.3530u   26.1316u 
  182.14286f -200.0000m   80.0000m   52.3570u   26.1318u 
  183.33333f -200.0000m   82.5000m   52.3611u   26.1319u 
  184.52381f -200.0000m   85.0000m   52.3651u   26.1321u 
  185.71429f -200.0000m   87.5000m   52.3691u   26.1322u 
  186.90476f -200.0000m   90.0000m   52.3731u   26.1323u 
  188.09524f -200.0000m   92.5000m   52.3772u   26.1325u 
  189.28571f -200.0000m   95.0000m   52.3812u   26.1326u 
  190.47619f -200.0000m   97.5000m   52.3852u   26.1327u 
  191.66667f -200.0000m  100.0000m   52.3892u   26.1329u 
  192.85714f -200.0000m  102.5000m   52.3933u   26.1330u 
  194.04762f -200.0000m  105.0000m   52.3973u   26.1331u 
  195.23810f -200.0000m  107.5000m   52.4013u   26.1333u 
  196.42857f -200.0000m  110.0000m   52.4057u   26.1333u 
  197.61905f -200.0000m  112.5000m   52.4102u   26.1333u 
  198.80952f -200.0000m  115.0000m   52.4146u   26.1334u 
  200.00000f -200.0000m  117.5000m   52.4191u   26.1334u 
  201.19048f -200.0000m  120.0000m   52.4235u   26.1335u 
  202.38095f -200.0000m  122.5000m   52.4279u   26.1335u 
  203.57143f -200.0000m  125.0000m   52.4324u   26.1335u 
  204.76190f -200.0000m  127.5000m   52.4368u   26.1336u 
  205.95238f -200.0000m  130.0000m   52.4413u   26.1336u 
  207.14286f -200.0000m  132.5000m   52.4457u   26.1336u 
  208.33333f -200.0000m  135.0000m   52.4502u   26.1337u 
  209.52381f -200.0000m  137.5000m   52.4546u   26.1337u 
  210.71429f -200.0000m  140.0000m   52.4591u   26.1337u 
  211.90476f -200.0000m  142.5000m   52.4635u   26.1338u 
  213.09524f -200.0000m  145.0000m   52.4679u   26.1338u 
  214.28571f -200.0000m  147.5000m   52.4724u   26.1339u 
  215.47619f -200.0000m  150.0000m   52.4768u   26.1339u 
  216.66667f -200.0000m  152.5000m   52.4813u   26.1339u 
  217.85714f -200.0000m  155.0000m   52.4857u   26.1340u 
  219.04762f -200.0000m  157.5000m   52.4902u   26.1340u 
  220.23810f -200.0000m  160.0000m   52.4946u   26.1340u 
  221.42857f -200.0000m  162.5000m   52.5004u   26.1340u 
  222.61905f -200.0000m  165.0000m   52.5064u   26.1341u 
  223.80952f -200.0000m  167.5000m   52.5124u   26.1341u 
  225.00000f -200.0000m  170.0000m   52.5184u   26.1341u 
  226.19048f -200.0000m  172.5000m   52.5244u   26.1341u 
  227.38095f -200.0000m  175.0000m   52.5304u   26.1341u 
  228.57143f -200.0000m  177.5000m   52.5364u   26.1341u 
  229.76190f -200.0000m  180.0000m   52.5424u   26.1341u 
  230.95238f -200.0000m  182.5000m   52.5484u   26.1341u 
  232.14286f -200.0000m  185.0000m   52.5544u   26.1341u 
  233.33333f -200.0000m  187.5000m   52.5604u   26.1341u 
  234.52381f -200.0000m  190.0000m   52.5664u   26.1342u 
  235.71429f -200.0000m  192.5000m   52.5724u   26.1342u 
  236.90476f -200.0000m  195.0000m   52.5784u   26.1342u 
  238.09524f -200.0000m  197.5000m   52.5844u   26.1342u 
  239.28571f -200.0000m  200.0000m   52.5904u   26.1342u 
  240.47619f -200.0000m  202.5000m   52.5964u   26.1342u 
  241.66667f -200.0000m  205.0000m   52.6024u   26.1342u 
  242.85714f -200.0000m  207.5000m   52.6084u   26.1342u 
  244.04762f -200.0000m  210.0000m   52.6144u   26.1342u 
  245.23810f -200.0000m  212.5000m   52.6204u   26.1342u 
  246.42857f -200.0000m  215.0000m   52.6292u   26.1342u 
  247.61905f -200.0000m  217.5000m   52.6387u   26.1342u 
  248.80952f -200.0000m  220.0000m   52.6481u   26.1343u 
  250.00000f -200.0000m  222.5000m   52.6576u   26.1343u 
  251.19048f -200.0000m  225.0000m   52.6670u   26.1343u 
  252.38095f -200.0000m  227.5000m   52.6765u   26.1343u 
  253.57143f -200.0000m  230.0000m   52.6859u   26.1343u 
  254.76190f -200.0000m  232.5000m   52.6953u   26.1343u 
  255.95238f -200.0000m  235.0000m   52.7048u   26.1343u 
  257.14286f -200.0000m  237.5000m   52.7142u   26.1343u 
  258.33333f -200.0000m  240.0000m   52.7237u   26.1343u 
  259.52381f -200.0000m  242.5000m   52.7331u   26.1343u 
  260.71429f -200.0000m  245.0000m   52.7426u   26.1343u 
  261.90476f -200.0000m  247.5000m   52.7520u   26.1343u 
  263.09524f -200.0000m  250.0000m   52.7615u   26.1343u 
  264.28571f -200.0000m  252.5000m   52.7709u   26.1343u 
  265.47619f -200.0000m  255.0000m   52.7803u   26.1343u 
  266.66667f -200.0000m  257.5000m   52.7898u   26.1343u 
  267.85714f -200.0000m  260.0000m   52.7992u   26.1343u 
  269.04762f -200.0000m  262.5000m   52.8087u   26.1343u 
  270.23810f -200.0000m  265.0000m   52.8181u   26.1343u 
  271.42857f -200.0000m  267.5000m   52.8345u   26.1343u 
  272.61905f -200.0000m  270.0000m   52.8531u   26.1343u 
  273.80952f -200.0000m  272.5000m   52.8716u   26.1343u 
  275.00000f -200.0000m  275.0000m   52.8902u   26.1343u 
  276.19048f -200.0000m  277.5000m   52.9088u   26.1343u 
  277.38095f -200.0000m  280.0000m   52.9274u   26.1343u 
  278.57143f -200.0000m  282.5000m   52.9460u   26.1343u 
  279.76190f -200.0000m  285.0000m   52.9645u   26.1343u 
  280.95238f -200.0000m  287.5000m   52.9831u   26.1343u 
  282.14286f -200.0000m  290.0000m   53.0017u   26.1343u 
  283.33333f -200.0000m  292.5000m   53.0203u   26.1343u 
  284.52381f -200.0000m  295.0000m   53.0389u   26.1343u 
  285.71429f -200.0000m  297.5000m   53.0574u   26.1343u 
  286.90476f -200.0000m  300.0000m   53.0760u   26.1343u 
  288.09524f -200.0000m  302.5000m   53.0946u   26.1343u 
  289.28571f -200.0000m  305.0000m   53.1132u   26.1343u 
  290.47619f -200.0000m  307.5000m   53.1318u   26.1343u 
  291.66667f -200.0000m  310.0000m   53.1503u   26.1343u 
  292.85714f -200.0000m  312.5000m   53.1689u   26.1343u 
  294.04762f -200.0000m  315.0000m   53.1875u   26.1343u 
  295.23810f -200.0000m  317.5000m   53.2061u   26.1343u 
  296.42857f -200.0000m  320.0000m   53.2515u   26.1343u 
  297.61905f -200.0000m  322.5000m   53.3082u   26.1343u 
  298.80952f -200.0000m  325.0000m   53.3648u   26.1343u 
  300.00000f -200.0000m  327.5000m   53.4214u   26.1343u 
  301.19048f -200.0000m  330.0000m   53.4781u   26.1343u 
  302.38095f -200.0000m  332.5000m   53.5347u   26.1343u 
  303.57143f -200.0000m  335.0000m   53.5913u   26.1343u 
  304.76190f -200.0000m  337.5000m   53.6480u   26.1343u 
  305.95238f -200.0000m  340.0000m   53.7046u   26.1343u 
  307.14286f -200.0000m  342.5000m   53.7612u   26.1343u 
  308.33333f -200.0000m  345.0000m   53.8179u   26.1343u 
  309.52381f -200.0000m  347.5000m   53.8745u   26.1343u 
  310.71429f -200.0000m  350.0000m   53.9311u   26.1343u 
  311.90476f -200.0000m  352.5000m   53.9878u   26.1343u 
  313.09524f -200.0000m  355.0000m   54.0444u   26.1343u 
  314.28571f -200.0000m  357.5000m   54.1010u   26.1343u 
  315.47619f -200.0000m  360.0000m   54.1577u   26.1343u 
  316.66667f -200.0000m  362.5000m   54.2143u   26.1343u 
  317.85714f -200.0000m  365.0000m   54.2709u   26.1343u 
  319.04762f -200.0000m  367.5000m   54.3276u   26.1343u 
  320.23810f -200.0000m  370.0000m   54.3842u   26.1343u 
  321.42857f -200.0000m  372.5000m   54.5228u   26.1343u 
  322.61905f -200.0000m  375.0000m   54.7044u   26.1343u 
  323.80952f -200.0000m  377.5000m   54.8861u   26.1343u 
  325.00000f -200.0000m  380.0000m   55.0677u   26.1343u 
  326.19048f -200.0000m  382.5000m   55.2493u   26.1343u 
  327.38095f -200.0000m  385.0000m   55.4309u   26.1343u 
  328.57143f -200.0000m  387.5000m   55.6126u   26.1343u 
  329.76190f -200.0000m  390.0000m   55.7942u   26.1343u 
  330.95238f -200.0000m  392.5000m   55.9758u   26.1343u 
  332.14286f -200.0000m  395.0000m   56.1574u   26.1343u 
  333.33333f -200.0000m  397.5000m   56.3391u   26.1343u 
  334.52381f -200.0000m  400.0000m   56.5207u   26.1343u 
  335.71429f -200.0000m  402.5000m   56.7023u   26.1343u 
  336.90476f -200.0000m  405.0000m   56.8839u   26.1343u 
  338.09524f -200.0000m  407.5000m   57.0656u   26.1343u 
  339.28571f -200.0000m  410.0000m   57.2472u   26.1343u 
  340.47619f -200.0000m  412.5000m   57.4288u   26.1343u 
  341.66667f -200.0000m  415.0000m   57.6105u   26.1343u 
  342.85714f -200.0000m  417.5000m   57.7921u   26.1343u 
  344.04762f -200.0000m  420.0000m   57.9737u   26.1343u 
  345.23810f -200.0000m  422.5000m   58.1553u   26.1343u 
  346.42857f -200.0000m  425.0000m   58.3316u   26.1343u 
  347.61905f -200.0000m  427.5000m   58.5044u   26.1343u 
  348.80952f -200.0000m  430.0000m   58.6772u   26.1343u 
  350.00000f -200.0000m  432.5000m   58.8499u   26.1343u 
  351.19048f -200.0000m  435.0000m   59.0227u   26.1343u 
  352.38095f -200.0000m  437.5000m   59.1955u   26.1343u 
  353.57143f -200.0000m  440.0000m   59.3683u   26.1343u 
  354.76190f -200.0000m  442.5000m   59.5411u   26.1343u 
  355.95238f -200.0000m  445.0000m   59.7138u   26.1343u 
  357.14286f -200.0000m  447.5000m   59.8866u   26.1343u 
  358.33333f -200.0000m  450.0000m   60.0594u   26.1343u 
  359.52381f -200.0000m  452.5000m   60.2322u   26.1343u 
  360.71429f -200.0000m  455.0000m   60.4050u   26.1343u 
  361.90476f -200.0000m  457.5000m   60.5777u   26.1343u 
  363.09524f -200.0000m  460.0000m   60.7505u   26.1343u 
  364.28571f -200.0000m  462.5000m   60.9233u   26.1343u 
  365.47619f -200.0000m  465.0000m   61.0961u   26.1343u 
  366.66667f -200.0000m  467.5000m   61.2688u   26.1343u 
  367.85714f -200.0000m  470.0000m   61.4416u   26.1343u 
  369.04762f -200.0000m  472.5000m   61.6144u   26.1343u 
  370.23810f -200.0000m  475.0000m   61.7872u   26.1343u 
  371.42857f -200.0000m  477.5000m   61.9161u   26.1343u 
  372.61905f -200.0000m  480.0000m   62.0101u   26.1343u 
  373.80952f -200.0000m  482.5000m   62.1041u   26.1343u 
  375.00000f -200.0000m  485.0000m   62.1980u   26.1343u 
  376.19048f -200.0000m  487.5000m   62.2920u   26.1343u 
  377.38095f -200.0000m  490.0000m   62.3859u   26.1343u 
  378.57143f -200.0000m  492.5000m   62.4799u   26.1343u 
  379.76190f -200.0000m  495.0000m   62.5738u   26.1343u 
  380.95238f -200.0000m  497.5000m   62.6678u   26.1343u 
  382.14286f -200.0000m  500.0000m   62.7617u   26.1343u 
  383.33333f -200.0000m  502.5000m   62.8557u   26.1343u 
  384.52381f -200.0000m  505.0000m   62.9496u   26.1343u 
  385.71429f -200.0000m  507.5000m   63.0436u   26.1343u 
  386.90476f -200.0000m  510.0000m   63.1375u   26.1343u 
  388.09524f -200.0000m  512.5000m   63.2315u   26.1343u 
  389.28571f -200.0000m  515.0000m   63.3254u   26.1343u 
  390.47619f -200.0000m  517.5000m   63.4194u   26.1343u 
  391.66667f -200.0000m  520.0000m   63.5133u   26.1343u 
  392.85714f -200.0000m  522.5000m   63.6073u   26.1343u 
  394.04762f -200.0000m  525.0000m   63.7013u   26.1343u 
  395.23810f -200.0000m  527.5000m   63.7952u   26.1343u 
  396.42857f -200.0000m  530.0000m   63.8710u   26.1343u 
  397.61905f -200.0000m  532.5000m   63.9290u   26.1343u 
  398.80952f -200.0000m  535.0000m   63.9870u   26.1343u 
  400.00000f -200.0000m  537.5000m   64.0450u   26.1343u 
  401.19048f -200.0000m  540.0000m   64.1030u   26.1343u 
  402.38095f -200.0000m  542.5000m   64.1610u   26.1343u 
  403.57143f -200.0000m  545.0000m   64.2190u   26.1343u 
  404.76190f -200.0000m  547.5000m   64.2770u   26.1343u 
  405.95238f -200.0000m  550.0000m   64.3350u   26.1343u 
  407.14286f -200.0000m  552.5000m   64.3930u   26.1343u 
  408.33333f -200.0000m  555.0000m   64.4511u   26.1343u 
  409.52381f -200.0000m  557.5000m   64.5091u   26.1343u 
  410.71429f -200.0000m  560.0000m   64.5671u   26.1343u 
  411.90476f -200.0000m  562.5000m   64.6251u   26.1343u 
  413.09524f -200.0000m  565.0000m   64.6831u   26.1343u 
  414.28571f -200.0000m  567.5000m   64.7411u   26.1343u 
  415.47619f -200.0000m  570.0000m   64.7991u   26.1343u 
  416.66667f -200.0000m  572.5000m   64.8571u   26.1343u 
  417.85714f -200.0000m  575.0000m   64.9151u   26.1343u 
  419.04762f -200.0000m  577.5000m   64.9731u   26.1343u 
  420.23810f -200.0000m  580.0000m   65.0311u   26.1343u 
  421.42857f -200.0000m  582.5000m   65.0782u   26.1343u 
  422.61905f -200.0000m  585.0000m   65.1123u   26.1343u 
  423.80952f -200.0000m  587.5000m   65.1463u   26.1343u 
  425.00000f -200.0000m  590.0000m   65.1804u   26.1343u 
  426.19048f -200.0000m  592.5000m   65.2144u   26.1343u 
  427.38095f -200.0000m  595.0000m   65.2485u   26.1343u 
  428.57143f -200.0000m  597.5000m   65.2825u   26.1343u 
  429.76190f -200.0000m  600.0000m   65.3166u   26.1343u 
  430.95238f -200.0000m  602.5000m   65.3506u   26.1343u 
  432.14286f -200.0000m  605.0000m   65.3847u   26.1343u 
  433.33333f -200.0000m  607.5000m   65.4187u   26.1343u 
  434.52381f -200.0000m  610.0000m   65.4528u   26.1343u 
  435.71429f -200.0000m  612.5000m   65.4868u   26.1343u 
  436.90476f -200.0000m  615.0000m   65.5209u   26.1343u 
  438.09524f -200.0000m  617.5000m   65.5549u   26.1343u 
  439.28571f -200.0000m  620.0000m   65.5890u   26.1343u 
  440.47619f -200.0000m  622.5000m   65.6230u   26.1343u 
  441.66667f -200.0000m  625.0000m   65.6571u   26.1343u 
  442.85714f -200.0000m  627.5000m   65.6911u   26.1343u 
  444.04762f -200.0000m  630.0000m   65.7252u   26.1343u 
  445.23810f -200.0000m  632.5000m   65.7592u   26.1343u 
  446.42857f -200.0000m  635.0000m   65.7882u   26.1343u 
  447.61905f -200.0000m  637.5000m   65.8099u   26.1343u 
  448.80952f -200.0000m  640.0000m   65.8316u   26.1343u 
  450.00000f -200.0000m  642.5000m   65.8533u   26.1343u 
  451.19048f -200.0000m  645.0000m   65.8750u   26.1343u 
  452.38095f -200.0000m  647.5000m   65.8967u   26.1343u 
  453.57143f -200.0000m  650.0000m   65.9184u   26.1343u 
  454.76190f -200.0000m  652.5000m   65.9401u   26.1343u 
  455.95238f -200.0000m  655.0000m   65.9618u   26.1343u 
  457.14286f -200.0000m  657.5000m   65.9835u   26.1343u 
  458.33333f -200.0000m  660.0000m   66.0052u   26.1343u 
  459.52381f -200.0000m  662.5000m   66.0270u   26.1343u 
  460.71429f -200.0000m  665.0000m   66.0487u   26.1343u 
  461.90476f -200.0000m  667.5000m   66.0704u   26.1343u 
  463.09524f -200.0000m  670.0000m   66.0921u   26.1343u 
  464.28571f -200.0000m  672.5000m   66.1138u   26.1343u 
  465.47619f -200.0000m  675.0000m   66.1355u   26.1343u 
  466.66667f -200.0000m  677.5000m   66.1572u   26.1343u 
  467.85714f -200.0000m  680.0000m   66.1789u   26.1343u 
  469.04762f -200.0000m  682.5000m   66.2006u   26.1343u 
  470.23810f -200.0000m  685.0000m   66.2223u   26.1343u 
  471.42857f -200.0000m  687.5000m   66.2437u   26.1343u 
  472.61905f -200.0000m  690.0000m   66.2646u   26.1343u 
  473.80952f -200.0000m  692.5000m   66.2855u   26.1343u 
  475.00000f -200.0000m  695.0000m   66.3064u   26.1343u 
  476.19048f -200.0000m  697.5000m   66.3274u   26.1343u 
  477.38095f -200.0000m  700.0000m   66.3483u   26.1343u 
  478.57143f -200.0000m  702.5000m   66.3692u   26.1343u 
  479.76190f -200.0000m  705.0000m   66.3901u   26.1343u 
  480.95238f -200.0000m  707.5000m   66.4111u   26.1343u 
  482.14286f -200.0000m  710.0000m   66.4320u   26.1343u 
  483.33333f -200.0000m  712.5000m   66.4529u   26.1343u 
  484.52381f -200.0000m  715.0000m   66.4738u   26.1343u 
  485.71429f -200.0000m  717.5000m   66.4948u   26.1343u 
  486.90476f -200.0000m  720.0000m   66.5157u   26.1343u 
  488.09524f -200.0000m  722.5000m   66.5366u   26.1343u 
  489.28571f -200.0000m  725.0000m   66.5575u   26.1343u 
  490.47619f -200.0000m  727.5000m   66.5784u   26.1343u 
  491.66667f -200.0000m  730.0000m   66.5994u   26.1343u 
  492.85714f -200.0000m  732.5000m   66.6203u   26.1343u 
  494.04762f -200.0000m  735.0000m   66.6412u   26.1343u 
  495.23810f -200.0000m  737.5000m   66.6621u   26.1343u 
  496.42857f -200.0000m  740.0000m   66.6842u   26.1343u 
  497.61905f -200.0000m  742.5000m   66.7090u   26.1343u 
  498.80952f -200.0000m  745.0000m   66.7338u   26.1343u 
  500.00000f -200.0000m  747.5000m   66.7585u   26.1343u 
  501.19048f -200.0000m  750.0000m   66.7833u   26.1343u 
y
x

 time         param     
             i_mp       
    0.        -44.6703u 
    1.19048f  -44.6703u 
    2.38095f  -43.4083u 
    3.57143f  -42.1765u 
    4.76190f  -41.0774u 
    5.95238f  -39.9929u 
    7.14286f  -38.9085u 
    8.33333f  -38.0268u 
    9.52381f  -37.2536u 
   10.71429f  -36.4805u 
   11.90476f  -35.7073u 
   13.09524f  -34.9341u 
   14.28571f  -34.1609u 
   15.47619f  -33.3877u 
   16.66667f  -32.6145u 
   17.85714f  -31.8413u 
   19.04762f  -31.0682u 
   20.23810f  -30.3941u 
   21.42857f  -30.0082u 
   22.61905f  -29.6224u 
   23.80952f  -29.2366u 
   25.00000f  -28.8507u 
   26.19048f  -28.4649u 
   27.38095f  -28.0790u 
   28.57143f  -27.6932u 
   29.76190f  -27.3073u 
   30.95238f  -26.9215u 
   32.14286f  -26.5356u 
   33.33333f  -26.1498u 
   34.52381f  -25.7640u 
   35.71429f  -25.3781u 
   36.90476f  -24.9923u 
   38.09524f  -24.6064u 
   39.28571f  -24.2206u 
   40.47619f  -23.8347u 
   41.66667f  -23.4489u 
   42.85714f  -23.0630u 
   44.04762f  -22.6772u 
   45.23810f  -22.3384u 
   46.42857f  -22.1808u 
   47.61905f  -22.0233u 
   48.80952f  -21.8658u 
   50.00000f  -21.7083u 
   51.19048f  -21.5507u 
   52.38095f  -21.3932u 
   53.57143f  -21.2357u 
   54.76190f  -21.0781u 
   55.95238f  -20.9206u 
   57.14286f  -20.7631u 
   58.33333f  -20.6056u 
   59.52381f  -20.4480u 
   60.71429f  -20.2905u 
   61.90476f  -20.1330u 
   63.09524f  -19.9754u 
   64.28571f  -19.8179u 
   65.47619f  -19.6604u 
   66.66667f  -19.5029u 
   67.85714f  -19.3453u 
   69.04762f  -19.1878u 
   70.23810f  -19.0423u 
   71.42857f  -18.9618u 
   72.61905f  -18.8813u 
   73.80952f  -18.8007u 
   75.00000f  -18.7202u 
   76.19048f  -18.6397u 
   77.38095f  -18.5592u 
   78.57143f  -18.4787u 
   79.76190f  -18.3982u 
   80.95238f  -18.3176u 
   82.14286f  -18.2371u 
   83.33333f  -18.1566u 
   84.52381f  -18.0761u 
   85.71429f  -17.9956u 
   86.90476f  -17.9150u 
   88.09524f  -17.8345u 
   89.28571f  -17.7540u 
   90.47619f  -17.6735u 
   91.66667f  -17.5930u 
   92.85714f  -17.5125u 
   94.04762f  -17.4319u 
   95.23810f  -17.3542u 
   96.42857f  -17.2996u 
   97.61905f  -17.2449u 
   98.80952f  -17.1903u 
  100.00000f  -17.1357u 
  101.19048f  -17.0811u 
  102.38095f  -17.0265u 
  103.57143f  -16.9718u 
  104.76190f  -16.9172u 
  105.95238f  -16.8626u 
  107.14286f  -16.8080u 
  108.33333f  -16.7534u 
  109.52381f  -16.6987u 
  110.71429f  -16.6441u 
  111.90476f  -16.5895u 
  113.09524f  -16.5349u 
  114.28571f  -16.4803u 
  115.47619f  -16.4257u 
  116.66667f  -16.3710u 
  117.85714f  -16.3164u 
  119.04762f  -16.2618u 
  120.23810f  -16.2076u 
  121.42857f  -16.1611u 
  122.61905f  -16.1146u 
  123.80952f  -16.0680u 
  125.00000f  -16.0215u 
  126.19048f  -15.9750u 
  127.38095f  -15.9284u 
  128.57143f  -15.8819u 
  129.76190f  -15.8354u 
  130.95238f  -15.7888u 
  132.14286f  -15.7423u 
  133.33333f  -15.6957u 
  134.52381f  -15.6492u 
  135.71429f  -15.6027u 
  136.90476f  -15.5561u 
  138.09524f  -15.5096u 
  139.28571f  -15.4631u 
  140.47619f  -15.4165u 
  141.66667f  -15.3700u 
  142.85714f  -15.3235u 
  144.04762f  -15.2769u 
  145.23810f  -15.2304u 
  146.42857f  -15.1854u 
  147.61905f  -15.1404u 
  148.80952f  -15.0953u 
  150.00000f  -15.0503u 
  151.19048f  -15.0053u 
  152.38095f  -14.9603u 
  153.57143f  -14.9153u 
  154.76190f  -14.8702u 
  155.95238f  -14.8252u 
  157.14286f  -14.7802u 
  158.33333f  -14.7352u 
  159.52381f  -14.6902u 
  160.71429f  -14.6451u 
  161.90476f  -14.6001u 
  163.09524f  -14.5551u 
  164.28571f  -14.5101u 
  165.47619f  -14.4651u 
  166.66667f  -14.4200u 
  167.85714f  -14.3750u 
  169.04762f  -14.3300u 
  170.23810f  -14.2850u 
  171.42857f  -14.2388u 
  172.61905f  -14.1925u 
  173.80952f  -14.1462u 
  175.00000f  -14.0999u 
  176.19048f  -14.0536u 
  177.38095f  -14.0074u 
  178.57143f  -13.9611u 
  179.76190f  -13.9148u 
  180.95238f  -13.8685u 
  182.14286f  -13.8222u 
  183.33333f  -13.7759u 
  184.52381f  -13.7297u 
  185.71429f  -13.6834u 
  186.90476f  -13.6371u 
  188.09524f  -13.5908u 
  189.28571f  -13.5445u 
  190.47619f  -13.4983u 
  191.66667f  -13.4520u 
  192.85714f  -13.4057u 
  194.04762f  -13.3594u 
  195.23810f  -13.3131u 
  196.42857f  -13.2642u 
  197.61905f  -13.2150u 
  198.80952f  -13.1658u 
  200.00000f  -13.1166u 
  201.19048f  -13.0674u 
  202.38095f  -13.0182u 
  203.57143f  -12.9690u 
  204.76190f  -12.9197u 
  205.95238f  -12.8705u 
  207.14286f  -12.8213u 
  208.33333f  -12.7721u 
  209.52381f  -12.7229u 
  210.71429f  -12.6737u 
  211.90476f  -12.6245u 
  213.09524f  -12.5753u 
  214.28571f  -12.5261u 
  215.47619f  -12.4769u 
  216.66667f  -12.4277u 
  217.85714f  -12.3785u 
  219.04762f  -12.3293u 
  220.23810f  -12.2801u 
  221.42857f  -12.2268u 
  222.61905f  -12.1730u 
  223.80952f  -12.1191u 
  225.00000f  -12.0652u 
  226.19048f  -12.0113u 
  227.38095f  -11.9574u 
  228.57143f  -11.9035u 
  229.76190f  -11.8496u 
  230.95238f  -11.7958u 
  232.14286f  -11.7419u 
  233.33333f  -11.6880u 
  234.52381f  -11.6341u 
  235.71429f  -11.5802u 
  236.90476f  -11.5263u 
  238.09524f  -11.4724u 
  239.28571f  -11.4185u 
  240.47619f  -11.3647u 
  241.66667f  -11.3108u 
  242.85714f  -11.2569u 
  244.04762f  -11.2030u 
  245.23810f  -11.1491u 
  246.42857f  -11.0890u 
  247.61905f  -11.0273u 
  248.80952f  -10.9657u 
  250.00000f  -10.9040u 
  251.19048f  -10.8424u 
  252.38095f  -10.7808u 
  253.57143f  -10.7191u 
  254.76190f  -10.6575u 
  255.95238f  -10.5958u 
  257.14286f  -10.5342u 
  258.33333f  -10.4725u 
  259.52381f  -10.4109u 
  260.71429f  -10.3492u 
  261.90476f  -10.2876u 
  263.09524f  -10.2259u 
  264.28571f  -10.1643u 
  265.47619f  -10.1026u 
  266.66667f  -10.0410u 
  267.85714f   -9.9794u 
  269.04762f   -9.9177u 
  270.23810f   -9.8561u 
  271.42857f   -9.7820u 
  272.61905f   -9.7039u 
  273.80952f   -9.6259u 
  275.00000f   -9.5478u 
  276.19048f   -9.4697u 
  277.38095f   -9.3916u 
  278.57143f   -9.3136u 
  279.76190f   -9.2355u 
  280.95238f   -9.1574u 
  282.14286f   -9.0794u 
  283.33333f   -9.0013u 
  284.52381f   -8.9232u 
  285.71429f   -8.8451u 
  286.90476f   -8.7671u 
  288.09524f   -8.6890u 
  289.28571f   -8.6109u 
  290.47619f   -8.5328u 
  291.66667f   -8.4548u 
  292.85714f   -8.3767u 
  294.04762f   -8.2986u 
  295.23810f   -8.2206u 
  296.42857f   -8.0994u 
  297.61905f   -7.9602u 
  298.80952f   -7.8211u 
  300.00000f   -7.6819u 
  301.19048f   -7.5428u 
  302.38095f   -7.4036u 
  303.57143f   -7.2645u 
  304.76190f   -7.1253u 
  305.95238f   -6.9862u 
  307.14286f   -6.8471u 
  308.33333f   -6.7079u 
  309.52381f   -6.5688u 
  310.71429f   -6.4296u 
  311.90476f   -6.2905u 
  313.09524f   -6.1513u 
  314.28571f   -6.0122u 
  315.47619f   -5.8730u 
  316.66667f   -5.7339u 
  317.85714f   -5.5947u 
  319.04762f   -5.4556u 
  320.23810f   -5.3164u 
  321.42857f   -5.0340u 
  322.61905f   -4.6764u 
  323.80952f   -4.3187u 
  325.00000f   -3.9611u 
  326.19048f   -3.6035u 
  327.38095f   -3.2458u 
  328.57143f   -2.8882u 
  329.76190f   -2.5306u 
  330.95238f   -2.1729u 
  332.14286f   -1.8153u 
  333.33333f   -1.4577u 
  334.52381f   -1.1000u 
  335.71429f -742.3908n 
  336.90476f -384.7574n 
  338.09524f  -27.1240n 
  339.28571f  330.5094n 
  340.47619f  688.1428n 
  341.66667f    1.0458u 
  342.85714f    1.4034u 
  344.04762f    1.7610u 
  345.23810f    2.1187u 
  346.42857f    2.5830u 
  347.61905f    3.1167u 
  348.80952f    3.6505u 
  350.00000f    4.1842u 
  351.19048f    4.7179u 
  352.38095f    5.2517u 
  353.57143f    5.7854u 
  354.76190f    6.3191u 
  355.95238f    6.8528u 
  357.14286f    7.3866u 
  358.33333f    7.9203u 
  359.52381f    8.4540u 
  360.71429f    8.9878u 
  361.90476f    9.5215u 
  363.09524f   10.0552u 
  364.28571f   10.5890u 
  365.47619f   11.1227u 
  366.66667f   11.6564u 
  367.85714f   12.1901u 
  369.04762f   12.7239u 
  370.23810f   13.2576u 
  371.42857f   13.8114u 
  372.61905f   14.3811u 
  373.80952f   14.9508u 
  375.00000f   15.5206u 
  376.19048f   16.0903u 
  377.38095f   16.6600u 
  378.57143f   17.2298u 
  379.76190f   17.7995u 
  380.95238f   18.3692u 
  382.14286f   18.9390u 
  383.33333f   19.5087u 
  384.52381f   20.0784u 
  385.71429f   20.6482u 
  386.90476f   21.2179u 
  388.09524f   21.7877u 
  389.28571f   22.3574u 
  390.47619f   22.9271u 
  391.66667f   23.4969u 
  392.85714f   24.0666u 
  394.04762f   24.6363u 
  395.23810f   25.2061u 
  396.42857f   25.7792u 
  397.61905f   26.3557u 
  398.80952f   26.9322u 
  400.00000f   27.5087u 
  401.19048f   28.0852u 
  402.38095f   28.6616u 
  403.57143f   29.2381u 
  404.76190f   29.8146u 
  405.95238f   30.3911u 
  407.14286f   30.9676u 
  408.33333f   31.5441u 
  409.52381f   32.1206u 
  410.71429f   32.6970u 
  411.90476f   33.2735u 
  413.09524f   33.8500u 
  414.28571f   34.4265u 
  415.47619f   35.0030u 
  416.66667f   35.5795u 
  417.85714f   36.1560u 
  419.04762f   36.7324u 
  420.23810f   37.3089u 
  421.42857f   37.8833u 
  422.61905f   38.4550u 
  423.80952f   39.0268u 
  425.00000f   39.5986u 
  426.19048f   40.1703u 
  427.38095f   40.7421u 
  428.57143f   41.3139u 
  429.76190f   41.8856u 
  430.95238f   42.4574u 
  432.14286f   43.0292u 
  433.33333f   43.6009u 
  434.52381f   44.1727u 
  435.71429f   44.7445u 
  436.90476f   45.3162u 
  438.09524f   45.8880u 
  439.28571f   46.4598u 
  440.47619f   47.0315u 
  441.66667f   47.6033u 
  442.85714f   48.1751u 
  444.04762f   48.7468u 
  445.23810f   49.3186u 
  446.42857f   49.8889u 
  447.61905f   50.4571u 
  448.80952f   51.0252u 
  450.00000f   51.5934u 
  451.19048f   52.1616u 
  452.38095f   52.7297u 
  453.57143f   53.2979u 
  454.76190f   53.8661u 
  455.95238f   54.4342u 
  457.14286f   55.0024u 
  458.33333f   55.5705u 
  459.52381f   56.1387u 
  460.71429f   56.7069u 
  461.90476f   57.2750u 
  463.09524f   57.8432u 
  464.28571f   58.4113u 
  465.47619f   58.9795u 
  466.66667f   59.5477u 
  467.85714f   60.1158u 
  469.04762f   60.6840u 
  470.23810f   61.2522u 
  471.42857f   61.8186u 
  472.61905f   62.3820u 
  473.80952f   62.9453u 
  475.00000f   63.5087u 
  476.19048f   64.0721u 
  477.38095f   64.6354u 
  478.57143f   65.1988u 
  479.76190f   65.7622u 
  480.95238f   66.3255u 
  482.14286f   66.8889u 
  483.33333f   67.4523u 
  484.52381f   68.0157u 
  485.71429f   68.5790u 
  486.90476f   69.1424u 
  488.09524f   69.7058u 
  489.28571f   70.2691u 
  490.47619f   70.8325u 
  491.66667f   71.3959u 
  492.85714f   71.9592u 
  494.04762f   72.5226u 
  495.23810f   73.0860u 
  496.42857f   73.6488u 
  497.61905f   74.2106u 
  498.80952f   74.7723u 
  500.00000f   75.3340u 
  501.19048f   75.8958u 
y

          ***** job concluded

   *** data name = sweep_co , index =     3 ***

 ******
 * hao ge <haoge@usc.edu>

 ****** transient analysis tnom=  25.000 temp= 125.000 ******
x

 time         voltage    voltage    param      param     
             in         out        i_vin      i_mn       
    0.       -150.0000m -300.0000m    1.6003p   -8.6099n 
    1.19048f -150.0000m -300.0000m    1.6003p   -8.6099n 
    2.38095f -150.0000m -297.5000m    2.7838u    1.5138u 
    3.57143f -150.0000m -295.0000m    5.4932u    2.9924u 
    4.76190f -150.0000m -292.5000m    7.8784u    4.2811u 
    5.95238f -150.0000m -290.0000m   10.2276u    5.5487u 
    7.14286f -150.0000m -287.5000m   12.5768u    6.8163u 
    8.33333f -150.0000m -285.0000m   14.4421u    7.8064u 
    9.52381f -150.0000m -282.5000m   16.0483u    8.6481u 
   10.71429f -150.0000m -280.0000m   17.6546u    9.4898u 
   11.90476f -150.0000m -277.5000m   19.2608u   10.3314u 
   13.09524f -150.0000m -275.0000m   20.8671u   11.1731u 
   14.28571f -150.0000m -272.5000m   22.4734u   12.0148u 
   15.47619f -150.0000m -270.0000m   24.0796u   12.8565u 
   16.66667f -150.0000m -267.5000m   25.6859u   13.6981u 
   17.85714f -150.0000m -265.0000m   27.2921u   14.5398u 
   19.04762f -150.0000m -262.5000m   28.8984u   15.3815u 
   20.23810f -150.0000m -260.0000m   30.2772u   16.0977u 
   21.42857f -150.0000m -257.5000m   30.9949u   16.4491u 
   22.61905f -150.0000m -255.0000m   31.7126u   16.8006u 
   23.80952f -150.0000m -252.5000m   32.4303u   17.1520u 
   25.00000f -150.0000m -250.0000m   33.1480u   17.5034u 
   26.19048f -150.0000m -247.5000m   33.8656u   17.8549u 
   27.38095f -150.0000m -245.0000m   34.5833u   18.2063u 
   28.57143f -150.0000m -242.5000m   35.3010u   18.5577u 
   29.76190f -150.0000m -240.0000m   36.0187u   18.9091u 
   30.95238f -150.0000m -237.5000m   36.7363u   19.2606u 
   32.14286f -150.0000m -235.0000m   37.4540u   19.6120u 
   33.33333f -150.0000m -232.5000m   38.1717u   19.9634u 
   34.52381f -150.0000m -230.0000m   38.8894u   20.3148u 
   35.71429f -150.0000m -227.5000m   39.6071u   20.6663u 
   36.90476f -150.0000m -225.0000m   40.3247u   21.0177u 
   38.09524f -150.0000m -222.5000m   41.0424u   21.3691u 
   39.28571f -150.0000m -220.0000m   41.7601u   21.7206u 
   40.47619f -150.0000m -217.5000m   42.4778u   22.0720u 
   41.66667f -150.0000m -215.0000m   43.1955u   22.4234u 
   42.85714f -150.0000m -212.5000m   43.9131u   22.7748u 
   44.04762f -150.0000m -210.0000m   44.6308u   23.1263u 
   45.23810f -150.0000m -207.5000m   45.2467u   23.4248u 
   46.42857f -150.0000m -205.0000m   45.4699u   23.5196u 
   47.61905f -150.0000m -202.5000m   45.6931u   23.6143u 
   48.80952f -150.0000m -200.0000m   45.9163u   23.7090u 
   50.00000f -150.0000m -197.5000m   46.1395u   23.8038u 
   51.19048f -150.0000m -195.0000m   46.3627u   23.8985u 
   52.38095f -150.0000m -192.5000m   46.5860u   23.9932u 
   53.57143f -150.0000m -190.0000m   46.8092u   24.0880u 
   54.76190f -150.0000m -187.5000m   47.0324u   24.1827u 
   55.95238f -150.0000m -185.0000m   47.2556u   24.2774u 
   57.14286f -150.0000m -182.5000m   47.4788u   24.3722u 
   58.33333f -150.0000m -180.0000m   47.7020u   24.4669u 
   59.52381f -150.0000m -177.5000m   47.9253u   24.5616u 
   60.71429f -150.0000m -175.0000m   48.1485u   24.6564u 
   61.90476f -150.0000m -172.5000m   48.3717u   24.7511u 
   63.09524f -150.0000m -170.0000m   48.5949u   24.8458u 
   64.28571f -150.0000m -167.5000m   48.8181u   24.9406u 
   65.47619f -150.0000m -165.0000m   49.0413u   25.0353u 
   66.66667f -150.0000m -162.5000m   49.2645u   25.1300u 
   67.85714f -150.0000m -160.0000m   49.4878u   25.2248u 
   69.04762f -150.0000m -157.5000m   49.7110u   25.3195u 
   70.23810f -150.0000m -155.0000m   49.9106u   25.4034u 
   71.42857f -150.0000m -152.5000m   49.9824u   25.4290u 
   72.61905f -150.0000m -150.0000m   50.0541u   25.4545u 
   73.80952f -150.0000m -147.5000m   50.1259u   25.4800u 
   75.00000f -150.0000m -145.0000m   50.1977u   25.5055u 
   76.19048f -150.0000m -142.5000m   50.2694u   25.5310u 
   77.38095f -150.0000m -140.0000m   50.3412u   25.5565u 
   78.57143f -150.0000m -137.5000m   50.4130u   25.5820u 
   79.76190f -150.0000m -135.0000m   50.4848u   25.6075u 
   80.95238f -150.0000m -132.5000m   50.5565u   25.6330u 
   82.14286f -150.0000m -130.0000m   50.6283u   25.6585u 
   83.33333f -150.0000m -127.5000m   50.7001u   25.6840u 
   84.52381f -150.0000m -125.0000m   50.7719u   25.7095u 
   85.71429f -150.0000m -122.5000m   50.8436u   25.7350u 
   86.90476f -150.0000m -120.0000m   50.9154u   25.7606u 
   88.09524f -150.0000m -117.5000m   50.9872u   25.7861u 
   89.28571f -150.0000m -115.0000m   51.0590u   25.8116u 
   90.47619f -150.0000m -112.5000m   51.1307u   25.8371u 
   91.66667f -150.0000m -110.0000m   51.2025u   25.8626u 
   92.85714f -150.0000m -107.5000m   51.2743u   25.8881u 
   94.04762f -150.0000m -105.0000m   51.3461u   25.9136u 
   95.23810f -150.0000m -102.5000m   51.4128u   25.9371u 
   96.42857f -150.0000m -100.0000m   51.4371u   25.9440u 
   97.61905f -150.0000m  -97.5000m   51.4614u   25.9509u 
   98.80952f -150.0000m  -95.0000m   51.4857u   25.9577u 
  100.00000f -150.0000m  -92.5000m   51.5100u   25.9646u 
  101.19048f -150.0000m  -90.0000m   51.5343u   25.9715u 
  102.38095f -150.0000m  -87.5000m   51.5585u   25.9784u 
  103.57143f -150.0000m  -85.0000m   51.5828u   25.9852u 
  104.76190f -150.0000m  -82.5000m   51.6071u   25.9921u 
  105.95238f -150.0000m  -80.0000m   51.6314u   25.9990u 
  107.14286f -150.0000m  -77.5000m   51.6557u   26.0058u 
  108.33333f -150.0000m  -75.0000m   51.6800u   26.0127u 
  109.52381f -150.0000m  -72.5000m   51.7043u   26.0196u 
  110.71429f -150.0000m  -70.0000m   51.7286u   26.0264u 
  111.90476f -150.0000m  -67.5000m   51.7529u   26.0333u 
  113.09524f -150.0000m  -65.0000m   51.7772u   26.0402u 
  114.28571f -150.0000m  -62.5000m   51.8015u   26.0471u 
  115.47619f -150.0000m  -60.0000m   51.8258u   26.0539u 
  116.66667f -150.0000m  -57.5000m   51.8500u   26.0608u 
  117.85714f -150.0000m  -55.0000m   51.8743u   26.0677u 
  119.04762f -150.0000m  -52.5000m   51.8986u   26.0745u 
  120.23810f -150.0000m  -50.0000m   51.9221u   26.0811u 
  121.42857f -150.0000m  -47.5000m   51.9312u   26.0830u 
  122.61905f -150.0000m  -45.0000m   51.9403u   26.0848u 
  123.80952f -150.0000m  -42.5000m   51.9494u   26.0867u 
  125.00000f -150.0000m  -40.0000m   51.9585u   26.0885u 
  126.19048f -150.0000m  -37.5000m   51.9676u   26.0904u 
  127.38095f -150.0000m  -35.0000m   51.9767u   26.0922u 
  128.57143f -150.0000m  -32.5000m   51.9858u   26.0941u 
  129.76190f -150.0000m  -30.0000m   51.9949u   26.0959u 
  130.95238f -150.0000m  -27.5000m   52.0041u   26.0978u 
  132.14286f -150.0000m  -25.0000m   52.0132u   26.0996u 
  133.33333f -150.0000m  -22.5000m   52.0223u   26.1015u 
  134.52381f -150.0000m  -20.0000m   52.0314u   26.1033u 
  135.71429f -150.0000m  -17.5000m   52.0405u   26.1052u 
  136.90476f -150.0000m  -15.0000m   52.0496u   26.1070u 
[...]
  350.00000f  750.0000m  432.5000m   53.5006u   74.0049u 
  351.19048f  750.0000m  435.0000m   53.4772u   74.0456u 
  352.38095f  750.0000m  437.5000m   53.4539u   74.0863u 
  353.57143f  750.0000m  440.0000m   53.4305u   74.1270u 
  354.76190f  750.0000m  442.5000m   53.4072u   74.1677u 
  355.95238f  750.0000m  445.0000m   53.3838u   74.2084u 
  357.14286f  750.0000m  447.5000m   53.3604u   74.2491u 
  358.33333f  750.0000m  450.0000m   53.3371u   74.2898u 
  359.52381f  750.0000m  452.5000m   53.3137u   74.3305u 
  360.71429f  750.0000m  455.0000m   53.2903u   74.3712u 
  361.90476f  750.0000m  457.5000m   53.2670u   74.4119u 
  363.09524f  750.0000m  460.0000m   53.2436u   74.4526u 
  364.28571f  750.0000m  462.5000m   53.2203u   74.4933u 
  365.47619f  750.0000m  465.0000m   53.1969u   74.5340u 
  366.66667f  750.0000m  467.5000m   53.1735u   74.5747u 
  367.85714f  750.0000m  470.0000m   53.1502u   74.6154u 
  369.04762f  750.0000m  472.5000m   53.1268u   74.6561u 
  370.23810f  750.0000m  475.0000m   53.1035u   74.6968u 
  371.42857f  750.0000m  477.5000m   53.0860u   74.7387u 
  372.61905f  750.0000m  480.0000m   53.0733u   74.7816u 
  373.80952f  750.0000m  482.5000m   53.0606u   74.8244u 
  375.00000f  750.0000m  485.0000m   53.0478u   74.8673u 
  376.19048f  750.0000m  487.5000m   53.0351u   74.9102u 
  377.38095f  750.0000m  490.0000m   53.0224u   74.9530u 
  378.57143f  750.0000m  492.5000m   53.0097u   74.9959u 
  379.76190f  750.0000m  495.0000m   52.9969u   75.0387u 
  380.95238f  750.0000m  497.5000m   52.9842u   75.0816u 
  382.14286f  750.0000m  500.0000m   52.9715u   75.1244u 
  383.33333f  750.0000m  502.5000m   52.9588u   75.1673u 
  384.52381f  750.0000m  505.0000m   52.9460u   75.2101u 
  385.71429f  750.0000m  507.5000m   52.9333u   75.2530u 
  386.90476f  750.0000m  510.0000m   52.9206u   75.2958u 
  388.09524f  750.0000m  512.5000m   52.9079u   75.3387u 
  389.28571f  750.0000m  515.0000m   52.8951u   75.3815u 
  390.47619f  750.0000m  517.5000m   52.8824u   75.4244u 
  391.66667f  750.0000m  520.0000m   52.8697u   75.4672u 
  392.85714f  750.0000m  522.5000m   52.8570u   75.5101u 
  394.04762f  750.0000m  525.0000m   52.8443u   75.5529u 
  395.23810f  750.0000m  527.5000m   52.8315u   75.5958u 
  396.42857f  750.0000m  530.0000m   52.8214u   75.6385u 
  397.61905f  750.0000m  532.5000m   52.8138u   75.6811u 
  398.80952f  750.0000m  535.0000m   52.8062u   75.7237u 
  400.00000f  750.0000m  537.5000m   52.7986u   75.7663u 
  401.19048f  750.0000m  540.0000m   52.7910u   75.8088u 
  402.38095f  750.0000m  542.5000m   52.7834u   75.8514u 
  403.57143f  750.0000m  545.0000m   52.7758u   75.8940u 
  404.76190f  750.0000m  547.5000m   52.7681u   75.9366u 
  405.95238f  750.0000m  550.0000m   52.7605u   75.9791u 
  407.14286f  750.0000m  552.5000m   52.7529u   76.0217u 
  408.33333f  750.0000m  555.0000m   52.7453u   76.0643u 
  409.52381f  750.0000m  557.5000m   52.7377u   76.1069u 
  410.71429f  750.0000m  560.0000m   52.7301u   76.1495u 
  411.90476f  750.0000m  562.5000m   52.7225u   76.1920u 
  413.09524f  750.0000m  565.0000m   52.7149u   76.2346u 
  414.28571f  750.0000m  567.5000m   52.7073u   76.2772u 
  415.47619f  750.0000m  570.0000m   52.6997u   76.3198u 
  416.66667f  750.0000m  572.5000m   52.6921u   76.3624u 
  417.85714f  750.0000m  575.0000m   52.6845u   76.4049u 
  419.04762f  750.0000m  577.5000m   52.6769u   76.4475u 
  420.23810f  750.0000m  580.0000m   52.6693u   76.4901u 
  421.42857f  750.0000m  582.5000m   52.6628u   76.5321u 
  422.61905f  750.0000m  585.0000m   52.6578u   76.5735u 
  423.80952f  750.0000m  587.5000m   52.6528u   76.6149u 
  425.00000f  750.0000m  590.0000m   52.6478u   76.6563u 
  426.19048f  750.0000m  592.5000m   52.6428u   76.6977u 
  427.38095f  750.0000m  595.0000m   52.6378u   76.7391u 
  428.57143f  750.0000m  597.5000m   52.6327u   76.7805u 
  429.76190f  750.0000m  600.0000m   52.6277u   76.8219u 
  430.95238f  750.0000m  602.5000m   52.6227u   76.8633u 
  432.14286f  750.0000m  605.0000m   52.6177u   76.9047u 
  433.33333f  750.0000m  607.5000m   52.6127u   76.9461u 
  434.52381f  750.0000m  610.0000m   52.6077u   76.9874u 
  435.71429f  750.0000m  612.5000m   52.6027u   77.0288u 
  436.90476f  750.0000m  615.0000m   52.5977u   77.0702u 
  438.09524f  750.0000m  617.5000m   52.5926u   77.1116u 
  439.28571f  750.0000m  620.0000m   52.5876u   77.1530u 
  440.47619f  750.0000m  622.5000m   52.5826u   77.1944u 
  441.66667f  750.0000m  625.0000m   52.5776u   77.2358u 
  442.85714f  750.0000m  627.5000m   52.5726u   77.2772u 
  444.04762f  750.0000m  630.0000m   52.5676u   77.3186u 
  445.23810f  750.0000m  632.5000m   52.5626u   77.3600u 
  446.42857f  750.0000m  635.0000m   52.5581u   77.4008u 
  447.61905f  750.0000m  637.5000m   52.5545u   77.4408u 
  448.80952f  750.0000m  640.0000m   52.5510u   77.4807u 
  450.00000f  750.0000m  642.5000m   52.5474u   77.5207u 
  451.19048f  750.0000m  645.0000m   52.5438u   77.5607u 
  452.38095f  750.0000m  647.5000m   52.5402u   77.6007u 
  453.57143f  750.0000m  650.0000m   52.5366u   77.6406u 
  454.76190f  750.0000m  652.5000m   52.5330u   77.6806u 
  455.95238f  750.0000m  655.0000m   52.5295u   77.7206u 
  457.14286f  750.0000m  657.5000m   52.5259u   77.7606u 
  458.33333f  750.0000m  660.0000m   52.5223u   77.8006u 
  459.52381f  750.0000m  662.5000m   52.5187u   77.8405u 
  460.71429f  750.0000m  665.0000m   52.5151u   77.8805u 
  461.90476f  750.0000m  667.5000m   52.5115u   77.9205u 
  463.09524f  750.0000m  670.0000m   52.5080u   77.9605u 
  464.28571f  750.0000m  672.5000m   52.5044u   78.0004u 
  465.47619f  750.0000m  675.0000m   52.5008u   78.0404u 
  466.66667f  750.0000m  677.5000m   52.4972u   78.0804u 
  467.85714f  750.0000m  680.0000m   52.4936u   78.1204u 
  469.04762f  750.0000m  682.5000m   52.4900u   78.1603u 
  470.23810f  750.0000m  685.0000m   52.4864u   78.2003u 
  471.42857f  750.0000m  687.5000m   52.4832u   78.2398u 
  472.61905f  750.0000m  690.0000m   52.4805u   78.2784u 
  473.80952f  750.0000m  692.5000m   52.4777u   78.3170u 
  475.00000f  750.0000m  695.0000m   52.4750u   78.3556u 
  476.19048f  750.0000m  697.5000m   52.4723u   78.3942u 
  477.38095f  750.0000m  700.0000m   52.4696u   78.4328u 
  478.57143f  750.0000m  702.5000m   52.4669u   78.4714u 
  479.76190f  750.0000m  705.0000m   52.4642u   78.5100u 
  480.95238f  750.0000m  707.5000m   52.4614u   78.5486u 
  482.14286f  750.0000m  710.0000m   52.4587u   78.5872u 
  483.33333f  750.0000m  712.5000m   52.4560u   78.6258u 
  484.52381f  750.0000m  715.0000m   52.4533u   78.6644u 
  485.71429f  750.0000m  717.5000m   52.4506u   78.7030u 
  486.90476f  750.0000m  720.0000m   52.4479u   78.7416u 
  488.09524f  750.0000m  722.5000m   52.4451u   78.7802u 
  489.28571f  750.0000m  725.0000m   52.4424u   78.8188u 
  490.47619f  750.0000m  727.5000m   52.4397u   78.8574u 
  491.66667f  750.0000m  730.0000m   52.4370u   78.8960u 
  492.85714f  750.0000m  732.5000m   52.4343u   78.9346u 
  494.04762f  750.0000m  735.0000m   52.4316u   78.9732u 
  495.23810f  750.0000m  737.5000m   52.4288u   79.0118u 
  496.42857f  750.0000m  740.0000m   52.4262u   79.0501u 
  497.61905f  750.0000m  742.5000m   52.4238u   79.0880u 
  498.80952f  750.0000m  745.0000m   52.4214u   79.1259u 
  500.00000f  750.0000m  747.5000m   52.4190u   79.1637u 
  501.19048f  750.0000m  750.0000m   52.4166u   79.2016u 
y
x

 time         param     
             i_mp       
    0.         -3.0946p 
    1.19048f   -3.0946p 
    2.38095f    1.2624u 
    3.57143f    2.4948u 
    4.76190f    3.5947u 
    5.95238f    4.6799u 
    7.14286f    5.7650u 
    8.33333f    6.6450u 
    9.52381f    7.4151u 
   10.71429f    8.1852u 
   11.90476f    8.9553u 
   13.09524f    9.7254u 
   14.28571f   10.4955u 
   15.47619f   11.2656u 
   16.66667f   12.0357u 
   17.85714f   12.8058u 
   19.04762f   13.5759u 
   20.23810f   14.2437u 
   21.42857f   14.6142u 
   22.61905f   14.9847u 
   23.80952f   15.3552u 
   25.00000f   15.7256u 
   26.19048f   16.0961u 
   27.38095f   16.4666u 
   28.57143f   16.8371u 
   29.76190f   17.2075u 
   30.95238f   17.5780u 
   32.14286f   17.9485u 
   33.33333f   18.3190u 
   34.52381f   18.6894u 
   35.71429f   19.0599u 
   36.90476f   19.4304u 
   38.09524f   19.8008u 
   39.28571f   20.1713u 
   40.47619f   20.5418u 
   41.66667f   20.9123u 
   42.85714f   21.2827u 
   44.04762f   21.6532u 
   45.23810f   21.9741u 
   46.42857f   22.1035u 
   47.61905f   22.2329u 
   48.80952f   22.3623u 
   50.00000f   22.4917u 
   51.19048f   22.6211u 
   52.38095f   22.7506u 
   53.57143f   22.8800u 
   54.76190f   23.0094u 
   55.95238f   23.1388u 
   57.14286f   23.2682u 
   58.33333f   23.3977u 
   59.52381f   23.5271u 
   60.71429f   23.6565u 
   61.90476f   23.7859u 
   63.09524f   23.9153u 
   64.28571f   24.0448u 
   65.47619f   24.1742u 
   66.66667f   24.3036u 
   67.85714f   24.4330u 
   69.04762f   24.5624u 
   70.23810f   24.6787u 
   71.42857f   24.7239u 
   72.61905f   24.7692u 
   73.80952f   24.8144u 
   75.00000f   24.8596u 
   76.19048f   24.9048u 
   77.38095f   24.9500u 
   78.57143f   24.9952u 
   79.76190f   25.0404u 
   80.95238f   25.0856u 
   82.14286f   25.1308u 
   83.33333f   25.1760u 
   84.52381f   25.2213u 
   85.71429f   25.2665u 
   86.90476f   25.3117u 
   88.09524f   25.3569u 
   89.28571f   25.4021u 
   90.47619f   25.4473u 
   91.66667f   25.4925u 
   92.85714f   25.5377u 
   94.04762f   25.5829u 
   95.23810f   25.6250u 
   96.42857f   25.6408u 
   97.61905f   25.6566u 
   98.80952f   25.6724u 
  100.00000f   25.6882u 
  101.19048f   25.7040u 
  102.38095f   25.7198u 
  103.57143f   25.7356u 
  104.76190f   25.7514u 
  105.95238f   25.7672u 
  107.14286f   25.7830u 
  108.33333f   25.7988u 
  109.52381f   25.8146u 
  110.71429f   25.8304u 
  111.90476f   25.8462u 
  113.09524f   25.8619u 
  114.28571f   25.8777u 
  115.47619f   25.8935u 
  116.66667f   25.9093u 
  117.85714f   25.9251u 
  119.04762f   25.9409u 
  120.23810f   25.9561u 
  121.42857f   25.9616u 
  122.61905f   25.9672u 
  123.80952f   25.9727u 
  125.00000f   25.9782u 
  126.19048f   25.9837u 
  127.38095f   25.9892u 
  128.57143f   25.9948u 
  129.76190f   26.0003u 
  130.95238f   26.0058u 
  132.14286f   26.0113u 
  133.33333f   26.0168u 
  134.52381f   26.0223u 
  135.71429f   26.0279u 
  136.90476f   26.0334u 
  138.09524f   26.0389u 
  139.28571f   26.0444u 
  140.47619f   26.0499u 
  141.66667f   26.0554u 
  142.85714f   26.0610u 
  144.04762f   26.0665u 
  145.23810f   26.0720u 
  146.42857f   26.0739u 
  147.61905f   26.0758u 
  148.80952f   26.0778u 
  150.00000f   26.0797u 
  151.19048f   26.0816u 
  152.38095f   26.0835u 
  153.57143f   26.0855u 
  154.76190f   26.0874u 
  155.95238f   26.0893u 
  157.14286f   26.0912u 
  158.33333f   26.0932u 
  159.52381f   26.0951u 
  160.71429f   26.0970u 
  161.90476f   26.0990u 
  163.09524f   26.1009u 
  164.28571f   26.1028u 
  165.47619f   26.1047u 
  166.66667f   26.1067u 
  167.85714f   26.1086u 
  169.04762f   26.1105u 
  170.23810f   26.1124u 
  171.42857f   26.1132u 
  172.61905f   26.1139u 
  173.80952f   26.1145u 
  175.00000f   26.1152u 
  176.19048f   26.1159u 
  177.38095f   26.1165u 
  178.57143f   26.1172u 
  179.76190f   26.1179u 
  180.95238f   26.1186u 
  182.14286f   26.1192u 
  183.33333f   26.1199u 
  184.52381f   26.1206u 
  185.71429f   26.1213u 
  186.90476f   26.1219u 
  188.09524f   26.1226u 
  189.28571f   26.1233u 
  190.47619f   26.1240u 
  191.66667f   26.1246u 
  192.85714f   26.1253u 
  194.04762f   26.1260u 
  195.23810f   26.1266u 
  196.42857f   26.1269u 
  197.61905f   26.1272u 
  198.80952f   26.1274u 
  200.00000f   26.1276u 
  201.19048f   26.1279u 
  202.38095f   26.1281u 
  203.57143f   26.1283u 
  204.76190f   26.1286u 
  205.95238f   26.1288u 
  207.14286f   26.1290u 
  208.33333f   26.1293u 
  209.52381f   26.1295u 
  210.71429f   26.1297u 
  211.90476f   26.1300u 
  213.09524f   26.1302u 
  214.28571f   26.1304u 
  215.47619f   26.1307u 
  216.66667f   26.1309u 
  217.85714f   26.1312u 
  219.04762f   26.1314u 
  220.23810f   26.1316u 
  221.42857f   26.1317u 
  222.61905f   26.1318u 
  223.80952f   26.1319u 
  225.00000f   26.1320u 
  226.19048f   26.1321u 
  227.38095f   26.1321u 
  228.57143f   26.1322u 
  229.76190f   26.1323u 
  230.95238f   26.1324u 
  232.14286f   26.1325u 
  233.33333f   26.1326u 
  234.52381f   26.1326u 
  235.71429f   26.1327u 
  236.90476f   26.1328u 
  238.09524f   26.1329u 
  239.28571f   26.1330u 
  240.47619f   26.1330u 
  241.66667f   26.1331u 
  242.85714f   26.1332u 
  244.04762f   26.1333u 
  245.23810f   26.1334u 
  246.42857f   26.1334u 
  247.61905f   26.1334u 
  248.80952f   26.1335u 
  250.00000f   26.1335u 
  251.19048f   26.1335u 
  252.38095f   26.1336u 
  253.57143f   26.1336u 
  254.76190f   26.1336u 
  255.95238f   26.1336u 
  257.14286f   26.1337u 
  258.33333f   26.1337u 
  259.52381f   26.1337u 
  260.71429f   26.1338u 
  261.90476f   26.1338u 
  263.09524f   26.1338u 
  264.28571f   26.1338u 
  265.47619f   26.1339u 
  266.66667f   26.1339u 
  267.85714f   26.1339u 
  269.04762f   26.1340u 
  270.23810f   26.1340u 
  271.42857f   26.1340u 
  272.61905f   26.1340u 
  273.80952f   26.1340u 
  275.00000f   26.1340u 
  276.19048f   26.1340u 
  277.38095f   26.1341u 
  278.57143f   26.1341u 
  279.76190f   26.1341u 
  280.95238f   26.1341u 
  282.14286f   26.1341u 
  283.33333f   26.1341u 
  284.52381f   26.1341u 
  285.71429f   26.1341u 
  286.90476f   26.1341u 
  288.09524f   26.1341u 
  289.28571f   26.1342u 
  290.47619f   26.1342u 
  291.66667f   26.1342u 
  292.85714f   26.1342u 
  294.04762f   26.1342u 
  295.23810f   26.1342u 
  296.42857f   26.1342u 
  297.61905f   26.1342u 
  298.80952f   26.1342u 
  300.00000f   26.1342u 
  301.19048f   26.1342u 
  302.38095f   26.1342u 
  303.57143f   26.1342u 
  304.76190f   26.1342u 
  305.95238f   26.1342u 
  307.14286f   26.1342u 
  308.33333f   26.1342u 
  309.52381f   26.1342u 
  310.71429f   26.1342u 
  311.90476f   26.1343u 
  313.09524f   26.1343u 
  314.28571f   26.1343u 
  315.47619f   26.1343u 
  316.66667f   26.1343u 
  317.85714f   26.1343u 
  319.04762f   26.1343u 
  320.23810f   26.1343u 
  321.42857f   26.1343u 
  322.61905f   26.1343u 
  323.80952f   26.1343u 
  325.00000f   26.1343u 
  326.19048f   26.1343u 
  327.38095f   26.1343u 
  328.57143f   26.1343u 
  329.76190f   26.1343u 
  330.95238f   26.1343u 
  332.14286f   26.1343u 
  333.33333f   26.1343u 
  334.52381f   26.1343u 
  335.71429f   26.1343u 
  336.90476f   26.1343u 
  338.09524f   26.1343u 
  339.28571f   26.1343u 
  340.47619f   26.1343u 
  341.66667f   26.1343u 
  342.85714f   26.1343u 
  344.04762f   26.1343u 
  345.23810f   26.1343u 
  346.42857f   26.1343u 
  347.61905f   26.1343u 
  348.80952f   26.1343u 
  350.00000f   26.1343u 
  351.19048f   26.1343u 
  352.38095f   26.1343u 
  353.57143f   26.1343u 
  354.76190f   26.1343u 
  355.95238f   26.1343u 
  357.14286f   26.1343u 
  358.33333f   26.1343u 
  359.52381f   26.1343u 
  360.71429f   26.1343u 
  361.90476f   26.1343u 
  363.09524f   26.1343u 
  364.28571f   26.1343u 
  365.47619f   26.1343u 
  366.66667f   26.1343u 
  367.85714f   26.1343u 
  369.04762f   26.1343u 
  370.23810f   26.1343u 
  371.42857f   26.1343u 
  372.61905f   26.1343u 
  373.80952f   26.1343u 
  375.00000f   26.1343u 
  376.19048f   26.1343u 
  377.38095f   26.1343u 
  378.57143f   26.1343u 
  379.76190f   26.1343u 
  380.95238f   26.1343u 
  382.14286f   26.1343u 
  383.33333f   26.1343u 
  384.52381f   26.1343u 
  385.71429f   26.1343u 
  386.90476f   26.1343u 
  388.09524f   26.1343u 
  389.28571f   26.1343u 
  390.47619f   26.1343u 
  391.66667f   26.1343u 
  392.85714f   26.1343u 
  394.04762f   26.1343u 
  395.23810f   26.1343u 
  396.42857f   26.1343u 
  397.61905f   26.1343u 
  398.80952f   26.1343u 
  400.00000f   26.1343u 
  401.19048f   26.1343u 
  402.38095f   26.1343u 
  403.57143f   26.1343u 
  404.76190f   26.1343u 
  405.95238f   26.1343u 
  407.14286f   26.1343u 
  408.33333f   26.1343u 
  409.52381f   26.1343u 
  410.71429f   26.1343u 
  411.90476f   26.1343u 
  413.09524f   26.1343u 
  414.28571f   26.1343u 
  415.47619f   26.1343u 
  416.66667f   26.1343u 
  417.85714f   26.1343u 
  419.04762f   26.1343u 
  420.23810f   26.1343u 
  421.42857f   26.1343u 
  422.61905f   26.1343u 
  423.80952f   26.1343u 
  425.00000f   26.1343u 
  426.19048f   26.1343u 
  427.38095f   26.1343u 
  428.57143f   26.1343u 
  429.76190f   26.1343u 
  430.95238f   26.1343u 
  432.14286f   26.1343u 
  433.33333f   26.1343u 
  434.52381f   26.1343u 
  435.71429f   26.1343u 
  436.90476f   26.1343u 
  438.09524f   26.1343u 
  439.28571f   26.1343u 
  440.47619f   26.1343u 
  441.66667f   26.1343u 
  442.85714f   26.1343u 
  444.04762f   26.1343u 
  445.23810f   26.1343u 
  446.42857f   26.1343u 
  447.61905f   26.1343u 
  448.80952f   26.1343u 
  450.00000f   26.1343u 
  451.19048f   26.1343u 
  452.38095f   26.1343u 
  453.57143f   26.1343u 
  454.76190f   26.1343u 
  455.95238f   26.1343u 
  457.14286f   26.1343u 
  458.33333f   26.1343u 
  459.52381f   26.1343u 
  460.71429f   26.1343u 
  461.90476f   26.1343u 
  463.09524f   26.1343u 
  464.28571f   26.1343u 
  465.47619f   26.1343u 
  466.66667f   26.1343u 
  467.85714f   26.1343u 
  469.04762f   26.1343u 
  470.23810f   26.1343u 
  471.42857f   26.1343u 
  472.61905f   26.1343u 
  473.80952f   26.1343u 
  475.00000f   26.1344u 
  476.19048f   26.1344u 
  477.38095f   26.1344u 
  478.57143f   26.1344u 
  479.76190f   26.1344u 
  480.95238f   26.1344u 
  482.14286f   26.1344u 
  483.33333f   26.1344u 
  484.52381f   26.1344u 
  485.71429f   26.1344u 
  486.90476f   26.1344u 
  488.09524f   26.1344u 
  489.28571f   26.1344u 
  490.47619f   26.1344u 
  491.66667f   26.1344u 
  492.85714f   26.1344u 
  494.04762f   26.1344u 
  495.23810f   26.1344u 
  496.42857f   26.1344u 
  497.61905f   26.1344u 
  498.80952f   26.1344u 
  500.00000f   26.1344u 
  501.19048f   26.1344u 
y

          ***** job concluded
 ******  
 * hao ge <haoge@usc.edu>

 ****** job statistics summary tnom=  25.000 temp= 125.000 ******
  
 ******  Machine Information  ******
 CPU:
 model name	: Intel(R) Xeon(R) CPU E7- 8837  @ 2.67GHz
 cpu MHz	: 2663.946
  
 OS:
 Linux version 3.16.0-10-amd64 (debian-kernel@lists.debian.org) (gcc version 4.9.2 (Debian 4.9.2-10+deb8u2) ) #1 SMP Debian 3.16.81-1 (2020-01-17)


  ******  HSPICE Threads Information  ******

  Command Line Threads Count :     1
  Available CPU Count        :    32
  Actual Threads Count       :     1


  ******  Circuit Statistics  ******
  # nodes       =       9 # elements   =       6
  # resistors   =       0 # capacitors =       0 # inductors   =       0
  # mutual_inds =       0 # vccs       =       0 # vcvs        =       0
  # cccs        =       0 # ccvs       =       0 # volt_srcs   =       4
  # curr_srcs   =       0 # diodes     =       0 # bjts        =       0
  # jfets       =       0 # mosfets    =       2 # U elements  =       0
  # T elements  =       0 # W elements =       0 # B elements  =       0
  # S elements  =       0 # P elements =       0 # va device   =       0
  # vector_srcs =       0 # N elements =       0


  ******  Runtime Statistics (seconds)  ******

  analysis           time    # points   tot. iter  conv.iter
  op point           0.03           1          85
  transient          0.14        8862        1078         525 rev=         0
  readin             0.03
  errchk             0.01
  setup              0.00
  output             0.00


           peak memory used        311.56 megabytes
           total cpu time            0.57 seconds
           total elapsed time        0.37 seconds
           job started at     03:35:48 04/24/2020
           job ended   at     03:35:49 04/24/2020



>info:         ***** hspice job concluded
 lic: Release hspice token(s) 
 lic: total license checkout elapse time:        0.05(s)
