Using: /opt/synopsys/hspice/O-2018.09-SP2-2/hspice/linux64/hspice FA.sp
 ****** HSPICE -- O-2018.09-SP2-2 linux64 (May  9 2019) ******                  
  Copyright (c) 1986 - 2020 by Synopsys, Inc. All Rights Reserved.              
  This software and the associated documentation are proprietary
  to Synopsys, Inc. This software may only be used in accordance
  with the terms and conditions of a written license agreement with
  Synopsys, Inc. All other use, reproduction, or distribution of
  this software is strictly prohibited.
  Input File: FA.sp                                                             
  Command line options: /opt/synopsys/hspice/O-2018.09-SP2-2/hspice/linux64/hspice FA.sp
  Start time: Tue Feb  4 14:34:25 2020
 lic:  
 lic: FLEXlm: SDK_11.7.3 
 lic: USER:   mitsushij            HOSTNAME: sahand 
 lic: HOSTID: "80c16e72eecb"       PID:      16854 
 lic: Using FLEXlm license file: 
 lic: 1720@ics-lic2.usc.edu 
 lic: Checkout 1 hspice 
 lic: License/Maintenance for hspice will expire on 30-jun-2021/2019.06 
 lic: 1(in_use)/50(total) FLOATING license(s) on SERVER 1720@ics-lic2.usc.edu 
 lic:   
  **warning** (./7nm_LSTP.pm:13) Model nfet device geometries will not be checked against the limits set by lmin, lmax, nfinmin and nfinmax. To enable this check, add a period(.) to the model name(i.e. enable model selector).
1****** HSPICE -- O-2018.09-SP2-2 linux64 (May  9 2019) ******                  
 ******  
 * m. saeed abrishami

 ****** circuit name directory
 circuit number to circuit name directory
   number circuitname                     definition         multiplier
        0 main circuit
        1 x0.                             nand2              1.00 
        2 x1.                             nand2              1.00 
        3 x2.                             nand2              1.00 
        4 x3.                             nand2              1.00 
        5 x4.                             nand2              1.00 
        6 x5.                             nand2              1.00 
        7 x6.                             nand2              1.00 
        8 x7.                             nand2              1.00 
        9 x8.                             nand2              1.00 
       10 xdumb1.                         nand2              1.00 
       11 xdumb2.                         nand2              1.00 
  **info** (FA.sp:47) DC voltage reset to initial transient source value in source 0:va. new dc=0.0000D+00
  
  **warning**  the following singular supplies have a terminal that is not connected to any other element
 supply                 node1                  node2
 vlo                 0:lo               defined in subckt 0            0:0                defined in subckt 0
  
      

Element variations(Local):   element              parameter
 **info** set option symb=1 internally to help for convergence.
 *****************************************************************
 ******  option summary
 ******
 runlvl  = 3         bypass  = 2.0000    
 ******  
 * m. saeed abrishami

 ****** operating point information tnom=  25.000 temp=  25.000 ******
 ****** operating point status is all       simulation time is     0.     
     node    =voltage       node    =voltage       node    =voltage

 + 0:1       = 629.4870n  0:2       = 629.4861n  0:3       = 629.4861n
 + 0:4       = 629.4852n  0:5       = 314.7427n  0:6       = 629.4856n
 + 0:7       = 314.7431n  0:a       =   0.       0:b       =   0.     
 + 0:cin     = 700.0000m  0:cout    = 629.4856n  0:hi      = 700.0000m
 + 0:lo      =   0.       0:netd1   = 314.7427n  0:netd2   = 314.7427n
 + 0:s       = 629.4856n  1:n1      = 315.1888n  2:n1      = 314.2477n
 + 3:n1      = 315.1885n  4:n1      = 314.2474n  5:n1      =  19.0897n
 + 6:n1      = 314.7180n  7:n1      =  19.0897n  8:n1      = 315.1881n
 + 9:n1      = 314.2477n 10:n1      =  19.0897n 11:n1      =  19.0897n


 **** voltage sources

 subckt                                                              
 element   0:va        0:vb        0:vcin      0:vhi       0:vlo     
  volts       0.          0.        700.0000m   700.0000m     0.     
  current    12.9121f    12.9121f   -23.0700p  -566.5372u     0.     
  power       0.          0.         16.1490p   396.5761u     0.     

     total voltage source power dissipation=  396.5761u       watts




 **** mosfets


 subckt    x0          x0          x0          x0          x1        
 element   1:mp2       1:mp1       1:mn1       1:mn2       2:mp2     
 model     0:pfet      0:pfet      0:nfet      0:nfet      0:pfet    
 region    Saturation  Saturation  Cutoff      Cutoff      Saturation
  id        -31.4744u   -31.4744u    15.8348a    15.9296a   -31.4743u
  ibs         0.          0.          0.          0.          0.     
  ibd         0.          0.          0.          0.          0.     
  vgs      -700.0000m  -700.0000m  -315.1888n     0.       -699.9994m
  vds      -699.9994m  -699.9994m   314.2982n   315.1888n  -699.9994m
  vbs         0.          0.       -315.1888n     0.          0.     
  vth      -544.1933m  -544.1933m   563.5226m   563.5226m  -544.1933m
  vdsat     -28.3222m   -28.3222m    14.7090m    14.7090m   -28.3222m
  vod      -155.8067m  -155.8067m  -563.5229m  -563.5226m  -155.8061m
  beta        8.5851m     8.5851m    13.9507m    13.9507m     8.5851m
  gam eff     0.          0.          0.          0.          0.     
  gm        205.7935u   205.7935u   517.3802a   519.0870a   205.7933u
  gds        16.7847u    16.7847u    50.4052p    50.4057p    16.7847u
  gmb         0.          0.          0.          0.          0.     
  cdtot      12.2674a    12.2674a    12.4449a    12.4449a    12.2674a
  cgtot      36.4633a    36.4633a    24.8898a    24.8898a    36.4633a
  cstot      18.4947a    18.4947a    12.4449a    12.4449a    18.4947a
  cbtot       0.          0.          0.          0.          0.     
  cgs        24.3771a    24.3771a    12.4449a    12.4449a    24.3771a
  cgd        12.0861a    12.0861a    12.4449a    12.4449a    12.0861a



 subckt    x1          x1          x1          x2          x2        
 element   2:mp1       2:mn1       2:mn2       3:mp2       3:mp1     
 model     0:pfet      0:nfet      0:nfet      0:pfet      0:pfet    
 region    Saturation  Cutoff      Cutoff      Saturation  Saturation
  id        -31.4744u    15.9296a    15.7874a   -31.4744u   -31.4743u
  ibs         0.          0.          0.          0.          0.     
  ibd         0.          0.          0.          0.          0.     
  vgs      -700.0000m  -314.2477n   629.4870n  -700.0000m  -699.9994m
  vds      -699.9994m   315.2383n   314.2477n  -699.9994m  -699.9994m
  vbs         0.       -314.2477n     0.          0.          0.     
  vth      -544.1933m   563.5226m   563.5226m  -544.1933m  -544.1933m
  vdsat     -28.3222m    14.7090m    14.7090m   -28.3222m   -28.3222m
  vod      -155.8067m  -563.5229m  -563.5220m  -155.8067m  -155.8061m
  beta        8.5851m    13.9507m    13.9507m     8.5851m     8.5851m
  gam eff     0.          0.          0.          0.          0.     
  gm        205.7935u   519.2766a   517.4276a   205.7935u   205.7933u
  gds        16.7847u    50.4052p    50.4067p    16.7847u    16.7847u
  gmb         0.          0.          0.          0.          0.     
  cdtot      12.2674a    12.4449a    12.4449a    12.2674a    12.2674a
  cgtot      36.4633a    24.8898a    24.8898a    36.4633a    36.4633a
  cstot      18.4947a    12.4449a    12.4449a    18.4947a    18.4947a
  cbtot       0.          0.          0.          0.          0.     
  cgs        24.3771a    12.4449a    12.4449a    24.3771a    24.3771a
  cgd        12.0861a    12.4449a    12.4449a    12.0861a    12.0861a



 subckt    x2          x2          x3          x3          x3        
 element   3:mn1       3:mn2       4:mp2       4:mp1       4:mn1     
 model     0:nfet      0:nfet      0:pfet      0:pfet      0:nfet    
 region    Cutoff      Cutoff      Saturation  Saturation  Cutoff    
  id         15.7874a    15.9296a   -31.4743u   -31.4743u    15.8822a
  ibs         0.          0.          0.          0.          0.     
  ibd         0.          0.          0.          0.          0.     
  vgs       314.2985n     0.       -699.9994m  -699.9994m   315.2386n
  vds       314.2976n   315.1885n  -699.9994m  -699.9994m   315.2377n
  vbs      -315.1885n     0.          0.          0.       -314.2474n
  vth       563.5226m   563.5226m  -544.1933m  -544.1933m   563.5226m
  vdsat      14.7090m    14.7090m   -28.3222m   -28.3222m    14.7090m
  vod      -563.5223m  -563.5226m  -155.8061m  -155.8061m  -563.5223m
  beta       13.9507m    13.9507m     8.5851m     8.5851m    13.9507m
  gam eff     0.          0.          0.          0.          0.     
  gm        517.6173a   519.1818a   205.7933u   205.7933u   519.0870a
  gds        50.4062p    50.4057p    16.7847u    16.7847u    50.4062p
  gmb         0.          0.          0.          0.          0.     
  cdtot      12.4449a    12.4449a    12.2674a    12.2674a    12.4449a
  cgtot      24.8898a    24.8898a    36.4633a    36.4633a    24.8898a
  cstot      12.4449a    12.4449a    18.4947a    18.4947a    12.4449a
  cbtot       0.          0.          0.          0.          0.     
  cgs        12.4449a    12.4449a    24.3771a    24.3771a    12.4449a
  cgd        12.4449a    12.4449a    12.0861a    12.0861a    12.4449a



 subckt    x3          x4          x4          x4          x4        
 element   4:mn2       5:mp2       5:mp1       5:mn1       5:mn2     
 model     0:nfet      0:pfet      0:pfet      0:nfet      0:nfet    
 region    Cutoff      Cutoff      Saturation  Cutoff      Linear    
  id         15.8822a    -3.7618p   -31.4743u    14.9340a     5.7675p
  ibs         0.          0.          0.          0.          0.     
  ibd         0.          0.          0.          0.          0.     
  vgs       629.4861n     0.       -699.9994m   610.3954n   700.0000m
  vds       314.2474n  -699.9997m  -699.9997m   295.6529n    19.0897n
  vbs         0.          0.          0.        -19.0897n     0.     
  vth       563.5226m  -540.7451m  -544.1933m   563.5226m   563.5226m
  vdsat      14.7090m   -19.0834m   -28.3222m    14.7090m    20.8763m
  vod      -563.5220m   540.7451m  -155.8061m  -563.5220m   136.4774m
  beta       13.9507m     8.5851m     8.5851m    13.9507m    13.9507m
  gam eff     0.          0.          0.          0.          0.     
  gm        517.5225a   119.6779p   205.7933u   486.7537a    27.7929p
  gds        50.4067p     9.9696p    16.7847u    50.4067p     1.6990m
  gmb         0.          0.          0.          0.          0.     
  cdtot      12.4449a    12.4449a    12.2674a    12.4449a    16.9858a
  cgtot      24.8898a    24.8898a    36.4633a    24.8898a    38.5125a
  cstot      12.4449a    12.4449a    18.4947a    12.4449a    16.9858a
  cbtot       0.          0.          0.          0.          0.     
  cgs        12.4449a    12.4449a    24.3771a    12.4449a    19.2562a
  cgd        12.4449a    12.4449a    12.0861a    12.4449a    19.2562a



 subckt    x5          x5          x5          x5          x6        
 element   6:mp2       6:mp1       6:mn1       6:mn2       7:mp2     
 model     0:pfet      0:pfet      0:nfet      0:nfet      0:pfet    
 region    Saturation  Saturation  Cutoff      Cutoff      Cutoff    
  id        -31.4743u   -31.4743u    15.8822a    15.8348a    -3.7618p
  ibs         0.          0.          0.          0.          0.     
  ibd         0.          0.          0.          0.          0.     
  vgs      -699.9997m  -699.9994m   314.7672n   314.7427n     0.     
  vds      -699.9994m  -699.9994m   314.7677n   314.7180n  -699.9997m
  vbs         0.          0.       -314.7180n     0.          0.     
  vth      -544.1933m  -544.1933m   563.5226m   563.5226m  -540.7451m
  vdsat     -28.3222m   -28.3222m    14.7090m    14.7090m   -19.0834m
  vod      -155.8064m  -155.8061m  -563.5223m  -563.5223m   540.7451m
  beta        8.5851m     8.5851m    13.9507m    13.9507m     8.5851m
  gam eff     0.          0.          0.          0.          0.     
  gm        205.7934u   205.7933u   518.1388a   518.6129a   119.6779p
  gds        16.7847u    16.7847u    50.4062p    50.4062p     9.9696p
  gmb         0.          0.          0.          0.          0.     
  cdtot      12.2674a    12.2674a    12.4449a    12.4449a    12.4449a
  cgtot      36.4633a    36.4633a    24.8898a    24.8898a    24.8898a
  cstot      18.4947a    18.4947a    12.4449a    12.4449a    12.4449a
  cbtot       0.          0.          0.          0.          0.     
  cgs        24.3771a    24.3771a    12.4449a    12.4449a    12.4449a
  cgd        12.0861a    12.0861a    12.4449a    12.4449a    12.4449a



 subckt    x6          x6          x6          x7          x7        
 element   7:mp1       7:mn1       7:mn2       8:mp2       8:mp1     
 model     0:pfet      0:nfet      0:nfet      0:pfet      0:pfet    
 region    Saturation  Cutoff      Linear      Saturation  Saturation
  id        -31.4743u    14.9340a     5.7675p   -31.4743u   -31.4743u
  ibs         0.          0.          0.          0.          0.     
  ibd         0.          0.          0.          0.          0.     
  vgs      -699.9997m   295.6529n   700.0000m  -699.9994m  -699.9997m
  vds      -699.9997m   295.6534n    19.0897n  -699.9994m  -699.9994m
  vbs         0.        -19.0897n     0.          0.          0.     
  vth      -544.1933m   563.5226m   563.5226m  -544.1933m  -544.1933m
  vdsat     -28.3222m    14.7090m    20.8763m   -28.3222m   -28.3222m
  vod      -155.8064m  -563.5223m   136.4774m  -155.8061m  -155.8064m
  beta        8.5851m    13.9507m    13.9507m     8.5851m     8.5851m
  gam eff     0.          0.          0.          0.          0.     
  gm        205.7934u   486.8485a    27.7929p   205.7933u   205.7934u
  gds        16.7847u    50.4062p     1.6990m    16.7847u    16.7847u
  gmb         0.          0.          0.          0.          0.     
  cdtot      12.2674a    12.4449a    16.9858a    12.2674a    12.2674a
  cgtot      36.4633a    24.8898a    38.5125a    36.4633a    36.4633a
  cstot      18.4947a    12.4449a    16.9858a    18.4947a    18.4947a
  cbtot       0.          0.          0.          0.          0.     
  cgs        24.3771a    12.4449a    19.2562a    24.3771a    24.3771a
  cgd        12.0861a    12.4449a    19.2562a    12.0861a    12.0861a



 subckt    x7          x7          x8          x8          x8        
 element   8:mn1       8:mn2       9:mp2       9:mp1       9:mn1     
 model     0:nfet      0:nfet      0:pfet      0:pfet      0:nfet    
 region    Cutoff      Cutoff      Saturation  Saturation  Cutoff    
  id         15.8822a    15.9296a   -31.4743u   -31.4743u    15.8822a
  ibs         0.          0.          0.          0.          0.     
  ibd         0.          0.          0.          0.          0.     
  vgs      -445.4053p   629.4870n  -699.9997m  -699.9994m   315.2379n
  vds       314.2976n   315.1881n  -699.9994m  -699.9994m   315.2379n
  vbs      -315.1881n     0.          0.          0.       -314.2477n
  vth       563.5226m   563.5226m  -544.1933m  -544.1933m   563.5226m
  vdsat      14.7090m    14.7090m   -28.3222m   -28.3222m    14.7090m
  vod      -563.5226m  -563.5220m  -155.8064m  -155.8061m  -563.5223m
  beta       13.9507m    13.9507m     8.5851m     8.5851m    13.9507m
  gam eff     0.          0.          0.          0.          0.     
  gm        517.7121a   518.9922a   205.7934u   205.7933u   518.9922a
  gds        50.4057p    50.4067p    16.7847u    16.7847u    50.4062p
  gmb         0.          0.          0.          0.          0.     
  cdtot      12.4449a    12.4449a    12.2674a    12.2674a    12.4449a
  cgtot      24.8898a    24.8898a    36.4633a    36.4633a    24.8898a
  cstot      12.4449a    12.4449a    18.4947a    18.4947a    12.4449a
  cbtot       0.          0.          0.          0.          0.     
  cgs        12.4449a    12.4449a    24.3771a    24.3771a    12.4449a
  cgd        12.4449a    12.4449a    12.0861a    12.0861a    12.4449a



 subckt    x8          xdumb1      xdumb1      xdumb1      xdumb1    
 element   9:mn2      10:mp2      10:mp1      10:mn1      10:mn2     
 model     0:nfet      0:pfet      0:pfet      0:nfet      0:nfet    
 region    Cutoff      Cutoff      Saturation  Cutoff      Linear    
  id         15.8348a    -3.7618p   -31.4743u    14.8392a     5.7675p
  ibs         0.          0.          0.          0.          0.     
  ibd         0.          0.          0.          0.          0.     
  vgs       314.7431n     0.       -699.9994m   610.3959n   700.0000m
  vds       314.2477n  -699.9997m  -699.9997m   295.6529n    19.0897n
  vbs         0.          0.          0.        -19.0897n     0.     
  vth       563.5226m  -540.7451m  -544.1933m   563.5226m   563.5226m
  vdsat      14.7090m   -19.0834m   -28.3222m    14.7090m    20.8763m
  vod      -563.5223m   540.7451m  -155.8061m  -563.5220m   136.4774m
  beta       13.9507m     8.5851m     8.5851m    13.9507m    13.9507m
  gam eff     0.          0.          0.          0.          0.     
  gm        517.3802a   119.6779p   205.7933u   486.7537a    27.7929p
  gds        50.4062p     9.9696p    16.7847u    50.4067p     1.6990m
  gmb         0.          0.          0.          0.          0.     
  cdtot      12.4449a    12.4449a    12.2674a    12.4449a    16.9858a
  cgtot      24.8898a    24.8898a    36.4633a    24.8898a    38.5125a
  cstot      12.4449a    12.4449a    18.4947a    12.4449a    16.9858a
  cbtot       0.          0.          0.          0.          0.     
  cgs        12.4449a    12.4449a    24.3771a    12.4449a    19.2562a
  cgd        12.4449a    12.4449a    12.0861a    12.4449a    19.2562a



 subckt    xdumb2      xdumb2      xdumb2      xdumb2    
 element  11:mp2      11:mp1      11:mn1      11:mn2     
 model     0:pfet      0:pfet      0:nfet      0:nfet    
 region    Cutoff      Saturation  Cutoff      Linear    
  id         -3.7618p   -31.4743u    14.8392a     5.7675p
  ibs         0.          0.          0.          0.     
  ibd         0.          0.          0.          0.     
  vgs         0.       -699.9994m   610.3959n   700.0000m
  vds      -699.9997m  -699.9997m   295.6529n    19.0897n
  vbs         0.          0.        -19.0897n     0.     
  vth      -540.7451m  -544.1933m   563.5226m   563.5226m
  vdsat     -19.0834m   -28.3222m    14.7090m    20.8763m
  vod       540.7451m  -155.8061m  -563.5220m   136.4774m
  beta        8.5851m     8.5851m    13.9507m    13.9507m
  gam eff     0.          0.          0.          0.     
  gm        119.6779p   205.7933u   486.7537a    27.7929p
  gds         9.9696p    16.7847u    50.4067p     1.6990m
  gmb         0.          0.          0.          0.     
  cdtot      12.4449a    12.2674a    12.4449a    16.9858a
  cgtot      24.8898a    36.4633a    24.8898a    38.5125a
  cstot      12.4449a    18.4947a    12.4449a    16.9858a
  cbtot       0.          0.          0.          0.     
  cgs        12.4449a    24.3771a    12.4449a    19.2562a
  cgd        12.4449a    12.0861a    12.4449a    19.2562a



 ******
 * m. saeed abrishami

 ****** transient analysis tnom=  25.000 temp=  25.000 ******
x

 time         voltage    voltage    voltage    voltage   
             s          cout       1          2          
    0.        629.4856n  629.4856n  629.4870n  629.4861n 
   10.00000f  807.5731u  804.6076u  577.2182u  609.4781u 
   20.00000f    1.6145m    1.6086m    1.1538m    1.2183m 
   30.00000f    2.4215m    2.4126m    1.7304m    1.8272m 
   40.00000f    3.2284m    3.2165m    2.3070m    2.4360m 
   50.00000f    4.0353m    4.0205m    2.8836m    3.0449m 
   60.00000f    4.8350m    4.8168m    3.4520m    3.6501m 
   70.00000f    5.6302m    5.6084m    4.0165m    4.2532m 
   80.00000f    6.4239m    6.3985m    4.5797m    4.8557m 
   90.00000f    7.2151m    7.1861m    5.1417m    5.4572m 
  100.00000f    7.9926m    7.9599m    5.6974m    6.0532m 
  110.00000f    8.7702m    8.7337m    6.2531m    6.6492m 
  120.00000f    9.5477m    9.5075m    6.8088m    7.2452m 
  130.00000f   10.3252m   10.2813m    7.3645m    7.8412m 
  140.00000f   11.1027m   11.0551m    7.9202m    8.4372m 
  150.00000f   11.8802m   11.8289m    8.4759m    9.0333m 
  160.00000f   12.6399m   12.5853m    9.0300m    9.6232m 
  170.00000f   13.3791m   13.3218m    9.5822m   10.2063m 
  180.00000f   14.1184m   14.0584m   10.1344m   10.7894m 
  190.00000f   14.8576m   14.7949m   10.6866m   11.3724m 
  200.00000f   15.5968m   15.5315m   11.2388m   11.9555m 
  210.00000f   16.3361m   16.2680m   11.7910m   12.5386m 
  220.00000f   17.0753m   17.0045m   12.3432m   13.1216m 
  230.00000f   17.8146m   17.7411m   12.8954m   13.7047m 
  240.00000f   18.5538m   18.4776m   13.4476m   14.2878m 
  250.00000f   19.2931m   19.2141m   13.9998m   14.8708m 
  260.00000f   20.0323m   19.9507m   14.5521m   15.4539m 
  270.00000f   20.7715m   20.6872m   15.1043m   16.0370m 
  280.00000f   21.5108m   21.4238m   15.6565m   16.6200m 
  290.00000f   22.2500m   22.1603m   16.2087m   17.2031m 
  300.00000f   22.9893m   22.8968m   16.7609m   17.7861m 
  310.00000f   23.7285m   23.6334m   17.3131m   18.3692m 
  320.00000f   24.4677m   24.3699m   17.8653m   18.9523m 
  330.00000f   25.2070m   25.1064m   18.4175m   19.5353m 
  340.00000f   25.9462m   25.8430m   18.9697m   20.1184m 
  350.00000f   26.6855m   26.5795m   19.5219m   20.7015m 
  360.00000f   27.4247m   27.3161m   20.0742m   21.2845m 
  370.00000f   28.1136m   28.0035m   20.6232m   21.8498m 
  380.00000f   28.7834m   28.6721m   21.1711m   22.4083m 
  390.00000f   29.4531m   29.3408m   21.7189m   22.9667m 
  400.00000f   30.1228m   30.0094m   22.2668m   23.5252m 
  410.00000f   30.7925m   30.6781m   22.8147m   24.0837m 
  420.00000f   31.4622m   31.3467m   23.3625m   24.6422m 
  430.00000f   32.1320m   32.0154m   23.9104m   25.2006m 
  440.00000f   32.8017m   32.6841m   24.4583m   25.7591m 
  450.00000f   33.4714m   33.3527m   25.0061m   26.3176m 
  460.00000f   34.1411m   34.0214m   25.5540m   26.8761m 
  470.00000f   34.8109m   34.6900m   26.1018m   27.4345m 
  480.00000f   35.4806m   35.3587m   26.6497m   27.9930m 
  490.00000f   36.1503m   36.0273m   27.1976m   28.5515m 
  500.00000f   36.8200m   36.6960m   27.7454m   29.1100m 
  510.00000f   37.4897m   37.3647m   28.2933m   29.6684m 
  520.00000f   38.1595m   38.0333m   28.8412m   30.2269m 
  530.00000f   38.8292m   38.7020m   29.3890m   30.7854m 
  540.00000f   39.4989m   39.3706m   29.9369m   31.3438m 
  550.00000f   40.1686m   40.0393m   30.4848m   31.9023m 
  560.00000f   40.8384m   40.7079m   31.0326m   32.4608m 
  570.00000f   41.5081m   41.3766m   31.5805m   33.0193m 
  580.00000f   42.1778m   42.0453m   32.1283m   33.5777m 
  590.00000f   42.8475m   42.7139m   32.6762m   34.1362m 
  600.00000f   43.5173m   43.3826m   33.2241m   34.6947m 
  610.00000f   44.1870m   44.0512m   33.7719m   35.2532m 
  620.00000f   44.8567m   44.7199m   34.3198m   35.8116m 
  630.00000f   45.5264m   45.3885m   34.8677m   36.3701m 
  640.00000f   46.1961m   46.0572m   35.4155m   36.9286m 
  650.00000f   46.8659m   46.7259m   35.9634m   37.4871m 
  660.00000f   47.5356m   47.3945m   36.5112m   38.0455m 
  670.00000f   48.2053m   48.0632m   37.0591m   38.6040m 
  680.00000f   48.8750m   48.7318m   37.6070m   39.1625m 
  690.00000f   49.5448m   49.4005m   38.1548m   39.7209m 
  700.00000f   50.2145m   50.0691m   38.7027m   40.2794m 
  710.00000f   50.8798m   50.7334m   39.2503m   40.8365m 
  720.00000f   51.4161m   51.2692m   39.7898m   41.3518m 
  730.00000f   51.9524m   51.8050m   40.3294m   41.8671m 
  740.00000f   52.4887m   52.3408m   40.8690m   42.3824m 
  750.00000f   53.0250m   52.8765m   41.4085m   42.8977m 
  760.00000f   53.5613m   53.4123m   41.9481m   43.4130m 
  770.00000f   54.0976m   53.9481m   42.4876m   43.9283m 
  780.00000f   54.6339m   54.4839m   43.0272m   44.4437m 
  790.00000f   55.1702m   55.0197m   43.5667m   44.9590m 
  800.00000f   55.7065m   55.5554m   44.1063m   45.4743m 
  810.00000f   56.2428m   56.0912m   44.6458m   45.9896m 
  820.00000f   56.7791m   56.6270m   45.1854m   46.5049m 
  830.00000f   57.3154m   57.1628m   45.7250m   47.0202m 
  840.00000f   57.8517m   57.6985m   46.2645m   47.5355m 
  850.00000f   58.3880m   58.2343m   46.8041m   48.0508m 
  860.00000f   58.9243m   58.7701m   47.3436m   48.5661m 
  870.00000f   59.4606m   59.3059m   47.8832m   49.0815m 
  880.00000f   59.9969m   59.8416m   48.4227m   49.5968m 
  890.00000f   60.5332m   60.3774m   48.9623m   50.1121m 
  900.00000f   61.0694m   60.9132m   49.5019m   50.6274m 
  910.00000f   61.6057m   61.4490m   50.0414m   51.1427m 
  920.00000f   62.1420m   61.9848m   50.5810m   51.6580m 
  930.00000f   62.6783m   62.5205m   51.1205m   52.1733m 
  940.00000f   63.2146m   63.0563m   51.6601m   52.6886m 
  950.00000f   63.7509m   63.5921m   52.1996m   53.2039m 
  960.00000f   64.2872m   64.1279m   52.7392m   53.7193m 
  970.00000f   64.8235m   64.6636m   53.2787m   54.2346m 
  980.00000f   65.3598m   65.1994m   53.8183m   54.7499m 
  990.00000f   65.8961m   65.7352m   54.3579m   55.2652m 
    1.00000p   66.4324m   66.2710m   54.8974m   55.7805m 
    1.01000p   66.9687m   66.8067m   55.4370m   56.2958m 
    1.02000p   67.5050m   67.3425m   55.9765m   56.8111m 
    1.03000p   68.0413m   67.8783m   56.5161m   57.3264m 
    1.04000p   68.5776m   68.4141m   57.0556m   57.8417m 
    1.05000p   69.1139m   68.9499m   57.5952m   58.3571m 
    1.06000p   69.6502m   69.4856m   58.1348m   58.8724m 
    1.07000p   70.1865m   70.0214m   58.6743m   59.3877m 
    1.08000p   70.7228m   70.5572m   59.2139m   59.9030m 
    1.09000p   71.2591m   71.0930m   59.7534m   60.4183m 
    1.10000p   71.7954m   71.6287m   60.2930m   60.9336m 
    1.11000p   72.3317m   72.1645m   60.8325m   61.4489m 
    1.12000p   72.8680m   72.7003m   61.3721m   61.9642m 
    1.13000p   73.4043m   73.2361m   61.9117m   62.4795m 
    1.14000p   73.9406m   73.7718m   62.4512m   62.9948m 
    1.15000p   74.4769m   74.3076m   62.9908m   63.5102m 
    1.16000p   75.0132m   74.8434m   63.5303m   64.0255m 
    1.17000p   75.5495m   75.3792m   64.0699m   64.5408m 
    1.18000p   76.0858m   75.9150m   64.6094m   65.0561m 
    1.19000p   76.6220m   76.4507m   65.1490m   65.5714m 
    1.20000p   77.1583m   76.9865m   65.6885m   66.0867m 
    1.21000p   77.6946m   77.5223m   66.2281m   66.6020m 
    1.22000p   78.2309m   78.0581m   66.7677m   67.1173m 
    1.23000p   78.7672m   78.5938m   67.3072m   67.6326m 
    1.24000p   79.3035m   79.1296m   67.8468m   68.1480m 
    1.25000p   79.8398m   79.6654m   68.3863m   68.6633m 
    1.26000p   80.3761m   80.2012m   68.9259m   69.1786m 
    1.27000p   80.9124m   80.7369m   69.4654m   69.6939m 
    1.28000p   81.4487m   81.2727m   70.0050m   70.2092m 
    1.29000p   81.9850m   81.8085m   70.5446m   70.7245m 
    1.30000p   82.5213m   82.3443m   71.0841m   71.2398m 
    1.31000p   83.0576m   82.8801m   71.6237m   71.7551m 
    1.32000p   83.5939m   83.4158m   72.1632m   72.2704m 
    1.33000p   84.1302m   83.9516m   72.7028m   72.7858m 
    1.34000p   84.6665m   84.4874m   73.2423m   73.3011m 
    1.35000p   85.2028m   85.0232m   73.7819m   73.8164m 
    1.36000p   85.7391m   85.5589m   74.3214m   74.3317m 
    1.37000p   86.2754m   86.0947m   74.8610m   74.8470m 
    1.38000p   86.8117m   86.6305m   75.4006m   75.3623m 
    1.39000p   87.3480m   87.1663m   75.9401m   75.8776m 
    1.40000p   87.8053m   87.6221m   76.4738m   76.3626m 
    1.41000p   88.2107m   88.0255m   77.0037m   76.8277m 
    1.42000p   88.6161m   88.4288m   77.5336m   77.2929m 
    1.43000p   89.0215m   88.8322m   78.0635m   77.7580m 
    1.44000p   89.4269m   89.2356m   78.5934m   78.2231m 
    1.45000p   89.8323m   89.6389m   79.1232m   78.6882m 
    1.46000p   90.2377m   90.0423m   79.6531m   79.1533m 
    1.47000p   90.6431m   90.4457m   80.1830m   79.6184m 
    1.48000p   91.0485m   90.8490m   80.7129m   80.0835m 
    1.49000p   91.4539m   91.2524m   81.2428m   80.5486m 
    1.50000p   91.8593m   91.6558m   81.7726m   81.0138m 
    1.51000p   92.2648m   92.0591m   82.3025m   81.4789m 
    1.52000p   92.6702m   92.4625m   82.8324m   81.9440m 
    1.53000p   93.0756m   92.8659m   83.3623m   82.4091m 
    1.54000p   93.4810m   93.2692m   83.8922m   82.8742m 
    1.55000p   93.8864m   93.6726m   84.4221m   83.3393m 
    1.56000p   94.2918m   94.0760m   84.9519m   83.8044m 
    1.57000p   94.6972m   94.4793m   85.4818m   84.2695m 
    1.58000p   95.1026m   94.8827m   86.0117m   84.7347m 
    1.59000p   95.5080m   95.2861m   86.5416m   85.1998m 
    1.60000p   95.9134m   95.6894m   87.0715m   85.6649m 
    1.61000p   96.3188m   96.0928m   87.6013m   86.1300m 
    1.62000p   96.7242m   96.4962m   88.1312m   86.5951m 
    1.63000p   97.1297m   96.8995m   88.6611m   87.0602m 
    1.64000p   97.5351m   97.3029m   89.1910m   87.5253m 
    1.65000p   97.9405m   97.7062m   89.7209m   87.9904m 
    1.66000p   98.3459m   98.1096m   90.2507m   88.4556m 
    1.67000p   98.7513m   98.5130m   90.7806m   88.9207m 
    1.68000p   99.1567m   98.9163m   91.3105m   89.3858m 
    1.69000p   99.5621m   99.3197m   91.8404m   89.8509m 
    1.70000p   99.9675m   99.7231m   92.3703m   90.3160m 
    1.71000p  100.3729m  100.1264m   92.9002m   90.7811m 
    1.72000p  100.7783m  100.5298m   93.4300m   91.2462m 
    1.73000p  101.1837m  100.9332m   93.9599m   91.7113m 
    1.74000p  101.5891m  101.3365m   94.4898m   92.1765m 
    1.75000p  101.9945m  101.7399m   95.0197m   92.6416m 
    1.76000p  102.4000m  102.1433m   95.5496m   93.1067m 
    1.77000p  102.8054m  102.5466m   96.0794m   93.5718m 
    1.78000p  103.2108m  102.9500m   96.6093m   94.0369m 
    1.79000p  103.6162m  103.3534m   97.1392m   94.5020m 
    1.80000p  104.0216m  103.7567m   97.6691m   94.9671m 
    1.81000p  104.4270m  104.1601m   98.1990m   95.4322m 
    1.82000p  104.8324m  104.5635m   98.7288m   95.8974m 
    1.83000p  105.2378m  104.9668m   99.2587m   96.3625m 
    1.84000p  105.6432m  105.3702m   99.7886m   96.8276m 
    1.85000p  106.0486m  105.7736m  100.3185m   97.2927m 
    1.86000p  106.4540m  106.1769m  100.8484m   97.7578m 
    1.87000p  106.8594m  106.5803m  101.3783m   98.2229m 
    1.88000p  107.2649m  106.9837m  101.9081m   98.6880m 
    1.89000p  107.6703m  107.3870m  102.4380m   99.1531m 
    1.90000p  108.0757m  107.7904m  102.9679m   99.6183m 
    1.91000p  108.4811m  108.1938m  103.4978m  100.0834m 
    1.92000p  108.8865m  108.5971m  104.0277m  100.5485m 
    1.93000p  109.2919m  109.0005m  104.5575m  101.0136m 
    1.94000p  109.6973m  109.4038m  105.0874m  101.4787m 
    1.95000p  110.1027m  109.8072m  105.6173m  101.9438m 
    1.96000p  110.5081m  110.2106m  106.1472m  102.4089m 
    1.97000p  110.9135m  110.6139m  106.6771m  102.8740m 
    1.98000p  111.3189m  111.0173m  107.2069m  103.3392m 
    1.99000p  111.7243m  111.4207m  107.7368m  103.8043m 
    2.00000p  112.1095m  111.8027m  108.2638m  104.2540m 
    2.01000p  112.4618m  112.1501m  108.7859m  104.6787m 
    2.02000p  112.8141m  112.4974m  109.3081m  105.1035m 
    2.03000p  113.1663m  112.8447m  109.8302m  105.5282m 
    2.04000p  113.5186m  113.1920m  110.3524m  105.9529m 
    2.05000p  113.8709m  113.5393m  110.8745m  106.3776m 
    2.06000p  114.2231m  113.8866m  111.3967m  106.8023m 
    2.07000p  114.5754m  114.2340m  111.9188m  107.2271m 
    2.08000p  114.9277m  114.5813m  112.4410m  107.6518m 
    2.09000p  115.2799m  114.9286m  112.9632m  108.0765m 
    2.10000p  115.6322m  115.2759m  113.4853m  108.5012m 
    2.11000p  115.9845m  115.6232m  114.0075m  108.9259m 
    2.12000p  116.3367m  115.9706m  114.5296m  109.3507m 
    2.13000p  116.6890m  116.3179m  115.0518m  109.7754m 
    2.14000p  117.0413m  116.6652m  115.5739m  110.2001m 
    2.15000p  117.3935m  117.0125m  116.0961m  110.6248m 
    2.16000p  117.7458m  117.3598m  116.6182m  111.0495m 
    2.17000p  118.0980m  117.7072m  117.1404m  111.4742m 
    2.18000p  118.4503m  118.0545m  117.6625m  111.8990m 
    2.19000p  118.8026m  118.4018m  118.1847m  112.3237m 
    2.20000p  119.1548m  118.7491m  118.7068m  112.7484m 
    2.21000p  119.5071m  119.0964m  119.2290m  113.1731m 
    2.22000p  119.8594m  119.4437m  119.7512m  113.5978m 
    2.23000p  120.2116m  119.7911m  120.2733m  114.0226m 
    2.24000p  120.5639m  120.1384m  120.7955m  114.4473m 
    2.25000p  120.9162m  120.4857m  121.3176m  114.8720m 
    2.26000p  121.2684m  120.8330m  121.8398m  115.2967m 
    2.27000p  121.6207m  121.1803m  122.3619m  115.7214m 
    2.28000p  121.9730m  121.5277m  122.8841m  116.1462m 
    2.29000p  122.3252m  121.8750m  123.4062m  116.5709m 
    2.30000p  122.6775m  122.2223m  123.9284m  116.9956m 
    2.31000p  123.0298m  122.5696m  124.4505m  117.4203m 
    2.32000p  123.3820m  122.9169m  124.9727m  117.8450m 
    2.33000p  123.7343m  123.2643m  125.4948m  118.2698m 
    2.34000p  124.0865m  123.6116m  126.0170m  118.6945m 
    2.35000p  124.4388m  123.9589m  126.5391m  119.1192m 
    2.36000p  124.7911m  124.3062m  127.0613m  119.5439m 
    2.37000p  125.1433m  124.6535m  127.5835m  119.9686m 
    2.38000p  125.4956m  125.0008m  128.1056m  120.3934m 
    2.39000p  125.8479m  125.3482m  128.6278m  120.8181m 
    2.40000p  126.2001m  125.6955m  129.1499m  121.2428m 
    2.41000p  126.5524m  126.0428m  129.6721m  121.6675m 
    2.42000p  126.9047m  126.3901m  130.1942m  122.0922m 
    2.43000p  127.2569m  126.7374m  130.7164m  122.5170m 
    2.44000p  127.6092m  127.0848m  131.2385m  122.9417m 
    2.45000p  127.9615m  127.4321m  131.7607m  123.3664m 
    2.46000p  128.3137m  127.7794m  132.2828m  123.7911m 
    2.47000p  128.6660m  128.1267m  132.8050m  124.2158m 
    2.48000p  129.0183m  128.4740m  133.3271m  124.6405m 
    2.49000p  129.3705m  128.8214m  133.8493m  125.0653m 
    2.50000p  129.7228m  129.1687m  134.3714m  125.4900m 
    2.51000p  130.0750m  129.5160m  134.8936m  125.9147m 
    2.52000p  130.4273m  129.8633m  135.4158m  126.3394m 
    2.53000p  130.7796m  130.2106m  135.9379m  126.7641m 
    2.54000p  131.1232m  130.5486m  136.4585m  127.1811m 
    2.55000p  131.4375m  130.8546m  136.9739m  127.5715m 
    2.56000p  131.7517m  131.1607m  137.4892m  127.9620m 
    2.57000p  132.0660m  131.4667m  138.0045m  128.3524m 
    2.58000p  132.3802m  131.7728m  138.5199m  128.7428m 
    2.59000p  132.6945m  132.0788m  139.0352m  129.1333m 
    2.60000p  133.0087m  132.3848m  139.5505m  129.5237m 
    2.61000p  133.3230m  132.6909m  140.0659m  129.9141m 
    2.62000p  133.6372m  132.9969m  140.5812m  130.3046m 
    2.63000p  133.9515m  133.3030m  141.0965m  130.6950m 
    2.64000p  134.2657m  133.6090m  141.6119m  131.0854m 
    2.65000p  134.5800m  133.9150m  142.1272m  131.4759m 
    2.66000p  134.8942m  134.2211m  142.6426m  131.8663m 
    2.67000p  135.2085m  134.5271m  143.1579m  132.2567m 
    2.68000p  135.5227m  134.8332m  143.6732m  132.6472m 
    2.69000p  135.8369m  135.1392m  144.1886m  133.0376m 
    2.70000p  136.1512m  135.4452m  144.7039m  133.4280m 
    2.71000p  136.4654m  135.7513m  145.2192m  133.8185m 
    2.72000p  136.7797m  136.0573m  145.7346m  134.2089m 
    2.73000p  137.0939m  136.3633m  146.2499m  134.5993m 
    2.74000p  137.4082m  136.6694m  146.7652m  134.9898m 
    2.75000p  137.7224m  136.9754m  147.2806m  135.3802m 
    2.76000p  138.0367m  137.2815m  147.7959m  135.7706m 
    2.77000p  138.3509m  137.5875m  148.3113m  136.1611m 
    2.78000p  138.6652m  137.8935m  148.8266m  136.5515m 
    2.79000p  138.9794m  138.1996m  149.3419m  136.9419m 
    2.80000p  139.2937m  138.5056m  149.8573m  137.3324m 
    2.81000p  139.6079m  138.8117m  150.3726m  137.7228m 
    2.82000p  139.9222m  139.1177m  150.8879m  138.1132m 
    2.83000p  140.2364m  139.4237m  151.4033m  138.5037m 
    2.84000p  140.5507m  139.7298m  151.9186m  138.8941m 
    2.85000p  140.8649m  140.0358m  152.4339m  139.2845m 
    2.86000p  141.1792m  140.3419m  152.9493m  139.6750m 
    2.87000p  141.4934m  140.6479m  153.4646m  140.0654m 
    2.88000p  141.8076m  140.9539m  153.9800m  140.4558m 
    2.89000p  142.1219m  141.2600m  154.4953m  140.8463m 
    2.90000p  142.4361m  141.5660m  155.0106m  141.2367m 
    2.91000p  142.7504m  141.8721m  155.5260m  141.6271m 
    2.92000p  143.0646m  142.1781m  156.0413m  142.0176m 
    2.93000p  143.3789m  142.4841m  156.5566m  142.4080m 
    2.94000p  143.6931m  142.7902m  157.0720m  142.7984m 
    2.95000p  144.0074m  143.0962m  157.5873m  143.1889m 
    2.96000p  144.3216m  143.4023m  158.1026m  143.5793m 
    2.97000p  144.6359m  143.7083m  158.6180m  143.9697m 
    2.98000p  144.9501m  144.0143m  159.1333m  144.3602m 
    2.99000p  145.2644m  144.3204m  159.6487m  144.7506m 
    3.00000p  145.5786m  144.6264m  160.1640m  145.1410m 
    3.01000p  145.8929m  144.9324m  160.6793m  145.5315m 
    3.02000p  146.2071m  145.2385m  161.1947m  145.9219m 
    3.03000p  146.5214m  145.5445m  161.7100m  146.3123m 
    3.04000p  146.8356m  145.8506m  162.2253m  146.7028m 
    3.05000p  147.1499m  146.1566m  162.7407m  147.0932m 
    3.06000p  147.4641m  146.4626m  163.2560m  147.4836m 
    3.07000p  147.7783m  146.7687m  163.7713m  147.8741m 
    3.08000p  148.0778m  147.0589m  164.2838m  148.2519m 
    3.09000p  148.3396m  147.3088m  164.7890m  148.5978m 
    3.10000p  148.6014m  147.5587m  165.2941m  148.9437m 
    3.11000p  148.8632m  147.8086m  165.7993m  149.2895m 
    3.12000p  149.1250m  148.0585m  166.3044m  149.6354m 
    3.13000p  149.3868m  148.3084m  166.8096m  149.9813m 
    3.14000p  149.6486m  148.5583m  167.3147m  150.3271m 
    3.15000p  149.9104m  148.8082m  167.8199m  150.6730m 
    3.16000p  150.1722m  149.0581m  168.3251m  151.0189m 
    3.17000p  150.4340m  149.3080m  168.8302m  151.3648m 
    3.18000p  150.6958m  149.5579m  169.3354m  151.7106m 
    3.19000p  150.9576m  149.8078m  169.8405m  152.0565m 
    3.20000p  151.2194m  150.0577m  170.3457m  152.4024m 
    3.21000p  151.4812m  150.3076m  170.8508m  152.7483m 
    3.22000p  151.7430m  150.5575m  171.3560m  153.0941m 
    3.23000p  152.0048m  150.8074m  171.8611m  153.4400m 
    3.24000p  152.2666m  151.0573m  172.3663m  153.7859m 
    3.25000p  152.5285m  151.3072m  172.8715m  154.1317m 
    3.26000p  152.7903m  151.5571m  173.3766m  154.4776m 
    3.27000p  153.0521m  151.8070m  173.8818m  154.8235m 
    3.28000p  153.3139m  152.0569m  174.3869m  155.1694m 
    3.29000p  153.5757m  152.3068m  174.8921m  155.5152m 
    3.30000p  153.8375m  152.5567m  175.3972m  155.8611m 
    3.31000p  154.0993m  152.8066m  175.9024m  156.2070m 
    3.32000p  154.3611m  153.0565m  176.4075m  156.5528m 
    3.33000p  154.6229m  153.3064m  176.9127m  156.8987m 
    3.34000p  154.8847m  153.5563m  177.4179m  157.2446m 
    3.35000p  155.1465m  153.8062m  177.9230m  157.5905m 
    3.36000p  155.4083m  154.0561m  178.4282m  157.9363m 
    3.37000p  155.6701m  154.3060m  178.9333m  158.2822m 
    3.38000p  155.9319m  154.5559m  179.4385m  158.6281m 
    3.39000p  156.1937m  154.8058m  179.9436m  158.9739m 
    3.40000p  156.4555m  155.0557m  180.4488m  159.3198m 
    3.41000p  156.7173m  155.3056m  180.9539m  159.6657m 
    3.42000p  156.9791m  155.5555m  181.4591m  160.0116m 
    3.43000p  157.2409m  155.8053m  181.9643m  160.3574m 
    3.44000p  157.5027m  156.0552m  182.4694m  160.7033m 
    3.45000p  157.7645m  156.3051m  182.9746m  161.0492m 
    3.46000p  158.0263m  156.5550m  183.4797m  161.3950m 
    3.47000p  158.2881m  156.8049m  183.9849m  161.7409m 
    3.48000p  158.5500m  157.0548m  184.4900m  162.0868m 
    3.49000p  158.8118m  157.3047m  184.9952m  162.4327m 
    3.50000p  159.0736m  157.5546m  185.5004m  162.7785m 
    3.51000p  159.3354m  157.8045m  186.0055m  163.1244m 
    3.52000p  159.5972m  158.0544m  186.5107m  163.4703m 
    3.53000p  159.8590m  158.3043m  187.0158m  163.8162m 
    3.54000p  160.1208m  158.5542m  187.5210m  164.1620m 
    3.55000p  160.3826m  158.8041m  188.0261m  164.5079m 
    3.56000p  160.6444m  159.0540m  188.5313m  164.8538m 
    3.57000p  160.9062m  159.3039m  189.0364m  165.1996m 
    3.58000p  161.1680m  159.5538m  189.5416m  165.5455m 
    3.59000p  161.4298m  159.8037m  190.0468m  165.8914m 
    3.60000p  161.6916m  160.0536m  190.5519m  166.2373m 
    3.61000p  161.9534m  160.3035m  191.0571m  166.5831m 
    3.62000p  162.2152m  160.5534m  191.5622m  166.9290m 
    3.63000p  162.4770m  160.8033m  192.0674m  167.2749m 
    3.64000p  162.7388m  161.0532m  192.5725m  167.6207m 
    3.65000p  163.0006m  161.3031m  193.0777m  167.9666m 
    3.66000p  163.2624m  161.5530m  193.5828m  168.3125m 
    3.67000p  163.5242m  161.8029m  194.0880m  168.6584m 
    3.68000p  163.7860m  162.0528m  194.5932m  169.0042m 
    3.69000p  164.0478m  162.3027m  195.0983m  169.3501m 
    3.70000p  164.3096m  162.5526m  195.6035m  169.6960m 
    3.71000p  164.5715m  162.8025m  196.1086m  170.0418m 
    3.72000p  164.8333m  163.0524m  196.6138m  170.3877m 
    3.73000p  165.0951m  163.3023m  197.1189m  170.7336m 
    3.74000p  165.3569m  163.5522m  197.6241m  171.0795m 
    3.75000p  165.6187m  163.8021m  198.1292m  171.4253m 
    3.76000p  165.8805m  164.0520m  198.6344m  171.7712m 
    3.77000p  166.1423m  164.3019m  199.1396m  172.1171m 
    3.78000p  166.4041m  164.5518m  199.6447m  172.4630m 
    3.79000p  166.6659m  164.8017m  200.1499m  172.8088m 
    3.80000p  166.9277m  165.0516m  200.6550m  173.1547m 
    3.81000p  167.1895m  165.3015m  201.1602m  173.5006m 
    3.82000p  167.4513m  165.5514m  201.6653m  173.8464m 
    3.83000p  167.7131m  165.8013m  202.1705m  174.1923m 
    3.84000p  167.9749m  166.0512m  202.6756m  174.5382m 
    3.85000p  168.2367m  166.3011m  203.1808m  174.8841m 
    3.86000p  168.4985m  166.5510m  203.6860m  175.2299m 
    3.87000p  168.7603m  166.8009m  204.1911m  175.5758m 
    3.88000p  169.0221m  167.0508m  204.6963m  175.9217m 
    3.89000p  169.2839m  167.3007m  205.2014m  176.2675m 
    3.90000p  169.5457m  167.5506m  205.7066m  176.6134m 
    3.91000p  169.8075m  167.8005m  206.2117m  176.9593m 
    3.92000p  170.0693m  168.0504m  206.7169m  177.3052m 
    3.93000p  170.3311m  168.3003m  207.2220m  177.6510m 
    3.94000p  170.5929m  168.5502m  207.7272m  177.9969m 
    3.95000p  170.8548m  168.8001m  208.2324m  178.3428m 
    3.96000p  171.1166m  169.0500m  208.7375m  178.6886m 
    3.97000p  171.3784m  169.2999m  209.2427m  179.0345m 
    3.98000p  171.6402m  169.5498m  209.7478m  179.3804m 
    3.99000p  171.9020m  169.7997m  210.2530m  179.7263m 
    4.00000p  172.1638m  170.0496m  210.7581m  180.0721m 
    4.01000p  172.4256m  170.2995m  211.2633m  180.4180m 
    4.02000p  172.6874m  170.5494m  211.7684m  180.7639m 
    4.03000p  172.9492m  170.7993m  212.2736m  181.1098m 
    4.04000p  173.2110m  171.0492m  212.7788m  181.4556m 
    4.05000p  173.4728m  171.2991m  213.2839m  181.8015m 
    4.06000p  173.7346m  171.5490m  213.7891m  182.1474m 
    4.07000p  173.9964m  171.7989m  214.2942m  182.4932m 
    4.08000p  174.2582m  172.0488m  214.7994m  182.8391m 
    4.09000p  174.5200m  172.2987m  215.3045m  183.1850m 
    4.10000p  174.7818m  172.5486m  215.8097m  183.5309m 
    4.11000p  175.0436m  172.7985m  216.3149m  183.8767m 
    4.12000p  175.3054m  173.0484m  216.8200m  184.2226m 
    4.13000p  175.5672m  173.2983m  217.3252m  184.5685m 
    4.14000p  175.8290m  173.5482m  217.8303m  184.9143m 
    4.15000p  176.0908m  173.7981m  218.3355m  185.2602m 
    4.16000p  176.3526m  174.0480m  218.8406m  185.6061m 
    4.17000p  176.6144m  174.2979m  219.3458m  185.9520m 
    4.18000p  176.8763m  174.5478m  219.8509m  186.2978m 
    4.19000p  177.1381m  174.7977m  220.3561m  186.6437m 
    4.20000p  177.3999m  175.0476m  220.8613m  186.9896m 
    4.21000p  177.6617m  175.2975m  221.3664m  187.3354m 
    4.22000p  177.9235m  175.5474m  221.8716m  187.6813m 
    4.23000p  178.1853m  175.7973m  222.3767m  188.0272m 
    4.24000p  178.4471m  176.0472m  222.8819m  188.3731m 
    4.25000p  178.7089m  176.2971m  223.3870m  188.7189m 
    4.26000p  178.9707m  176.5470m  223.8922m  189.0648m 
    4.27000p  179.1985m  176.7622m  224.3902m  189.3832m 
    4.28000p  179.4103m  176.9612m  224.8848m  189.6888m 
    4.29000p  179.6222m  177.1602m  225.3794m  189.9944m 
    4.30000p  179.8341m  177.3593m  225.8741m  190.3000m 
    4.31000p  180.0460m  177.5583m  226.3687m  190.6056m 
    4.32000p  180.2579m  177.7573m  226.8633m  190.9112m 
    4.33000p  180.4698m  177.9563m  227.3580m  191.2168m 
    4.34000p  180.6817m  178.1553m  227.8526m  191.5224m 
    4.35000p  180.8935m  178.3543m  228.3472m  191.8280m 
    4.36000p  181.1054m  178.5533m  228.8419m  192.1336m 
    4.37000p  181.3173m  178.7523m  229.3365m  192.4392m 
    4.38000p  181.5292m  178.9513m  229.8311m  192.7448m 
    4.39000p  181.7411m  179.1503m  230.3258m  193.0504m 
    4.40000p  181.9530m  179.3494m  230.8204m  193.3560m 
    4.41000p  182.1649m  179.5484m  231.3150m  193.6616m 
    4.42000p  182.3767m  179.7474m  231.8097m  193.9672m 
    4.43000p  182.5886m  179.9464m  232.3043m  194.2728m 
    4.44000p  182.8005m  180.1454m  232.7989m  194.5784m 
    4.45000p  183.0124m  180.3444m  233.2936m  194.8840m 
    4.46000p  183.2243m  180.5434m  233.7882m  195.1896m 
    4.47000p  183.4362m  180.7424m  234.2828m  195.4952m 
    4.48000p  183.6480m  180.9414m  234.7775m  195.8008m 
    4.49000p  183.8599m  181.1405m  235.2721m  196.1064m 
    4.50000p  184.0718m  181.3395m  235.7667m  196.4120m 
    4.51000p  184.2837m  181.5385m  236.2614m  196.7176m 
    4.52000p  184.4956m  181.7375m  236.7560m  197.0232m 
    4.53000p  184.7075m  181.9365m  237.2507m  197.3288m 
    4.54000p  184.9194m  182.1355m  237.7453m  197.6344m 
    4.55000p  185.1312m  182.3345m  238.2399m  197.9400m 
    4.56000p  185.3431m  182.5335m  238.7346m  198.2456m 
    4.57000p  185.5550m  182.7325m  239.2292m  198.5512m 
    4.58000p  185.7669m  182.9315m  239.7238m  198.8568m 
    4.59000p  185.9788m  183.1306m  240.2185m  199.1624m 
    4.60000p  186.1907m  183.3296m  240.7131m  199.4680m 
    4.61000p  186.4026m  183.5286m  241.2077m  199.7736m 
    4.62000p  186.6144m  183.7276m  241.7024m  200.0792m 
    4.63000p  186.8263m  183.9266m  242.1970m  200.3848m 
    4.64000p  187.0382m  184.1256m  242.6916m  200.6904m 
    4.65000p  187.2501m  184.3246m  243.1863m  200.9960m 
    4.66000p  187.4620m  184.5236m  243.6809m  201.3016m 
    4.67000p  187.6739m  184.7226m  244.1755m  201.6072m 
    4.68000p  187.8858m  184.9217m  244.6702m  201.9128m 
    4.69000p  188.0976m  185.1207m  245.1648m  202.2184m 
    4.70000p  188.3095m  185.3197m  245.6594m  202.5240m 
    4.71000p  188.5214m  185.5187m  246.1541m  202.8296m 
    4.72000p  188.7333m  185.7177m  246.6487m  203.1352m 
    4.73000p  188.9452m  185.9167m  247.1433m  203.4408m 
    4.74000p  189.1571m  186.1157m  247.6380m  203.7464m 
    4.75000p  189.3690m  186.3147m  248.1326m  204.0520m 
    4.76000p  189.5808m  186.5137m  248.6272m  204.3576m 
    4.77000p  189.7927m  186.7127m  249.1219m  204.6632m 
    4.78000p  190.0046m  186.9118m  249.6165m  204.9688m 
    4.79000p  190.2165m  187.1108m  250.1111m  205.2744m 
    4.80000p  190.4284m  187.3098m  250.6058m  205.5800m 
    4.81000p  190.6403m  187.5088m  251.1004m  205.8856m 
    4.82000p  190.8521m  187.7078m  251.5950m  206.1912m 
    4.83000p  191.0640m  187.9068m  252.0897m  206.4968m 
    4.84000p  191.2759m  188.1058m  252.5843m  206.8024m 
    4.85000p  191.4878m  188.3048m  253.0789m  207.1080m 
    4.86000p  191.6997m  188.5038m  253.5736m  207.4136m 
    4.87000p  191.9116m  188.7029m  254.0682m  207.7192m 
    4.88000p  192.1235m  188.9019m  254.5628m  208.0248m 
    4.89000p  192.3353m  189.1009m  255.0575m  208.3304m 
    4.90000p  192.5472m  189.2999m  255.5521m  208.6360m 
    4.91000p  192.7591m  189.4989m  256.0467m  208.9416m 
    4.92000p  192.9710m  189.6979m  256.5414m  209.2472m 
    4.93000p  193.1829m  189.8969m  257.0360m  209.5528m 
    4.94000p  193.3948m  190.0959m  257.5306m  209.8584m 
    4.95000p  193.6067m  190.2949m  258.0253m  210.1640m 
    4.96000p  193.8185m  190.4939m  258.5199m  210.4696m 
    4.97000p  194.0304m  190.6930m  259.0145m  210.7752m 
    4.98000p  194.2423m  190.8920m  259.5092m  211.0808m 
    4.99000p  194.4542m  191.0910m  260.0038m  211.3864m 
    5.00000p  194.6661m  191.2900m  260.4984m  211.6920m 
    5.01000p  194.8504m  191.4645m  260.9850m  211.9790m 
    5.02000p  195.0348m  191.6391m  261.4716m  212.2660m 
    5.03000p  195.2192m  191.8136m  261.9582m  212.5530m 
    5.04000p  195.4035m  191.9881m  262.4448m  212.8400m 
    5.05000p  195.5879m  192.1627m  262.9314m  213.1270m 
    5.06000p  195.7723m  192.3372m  263.4180m  213.4140m 
    5.07000p  195.9566m  192.5117m  263.9046m  213.7010m 
    5.08000p  196.1410m  192.6863m  264.3913m  213.9880m 
    5.09000p  196.3254m  192.8608m  264.8779m  214.2750m 
    5.10000p  196.5097m  193.0353m  265.3645m  214.5620m 
    5.11000p  196.6941m  193.2098m  265.8511m  214.8490m 
    5.12000p  196.8784m  193.3844m  266.3377m  215.1360m 
    5.13000p  197.0628m  193.5589m  266.8243m  215.4230m 
    5.14000p  197.2472m  193.7334m  267.3109m  215.7100m 
    5.15000p  197.4315m  193.9080m  267.7975m  215.9970m 
    5.16000p  197.6159m  194.0825m  268.2841m  216.2840m 
    5.17000p  197.8003m  194.2570m  268.7707m  216.5710m 
    5.18000p  197.9846m  194.4316m  269.2573m  216.8580m 
    5.19000p  198.1690m  194.6061m  269.7439m  217.1450m 
    5.20000p  198.3533m  194.7806m  270.2305m  217.4320m 
    5.21000p  198.5377m  194.9552m  270.7171m  217.7190m 
    5.22000p  198.7221m  195.1297m  271.2037m  218.0060m 
    5.23000p  198.9064m  195.3042m  271.6903m  218.2930m 
    5.24000p  199.0908m  195.4788m  272.1769m  218.5800m 
    5.25000p  199.2752m  195.6533m  272.6635m  218.8670m 
    5.26000p  199.4595m  195.8278m  273.1501m  219.1540m 
    5.27000p  199.6394m  195.9991m  273.6317m  219.4366m 
    5.28000p  199.8165m  196.1684m  274.1104m  219.7166m 
    5.29000p  199.9936m  196.3377m  274.5891m  219.9966m 
    5.30000p  200.1708m  196.5070m  275.0677m  220.2766m 
    5.31000p  200.3479m  196.6763m  275.5464m  220.5566m 
    5.32000p  200.5251m  196.8456m  276.0251m  220.8366m 
    5.33000p  200.7022m  197.0149m  276.5037m  221.1166m 
    5.34000p  200.8794m  197.1842m  276.9824m  221.3966m 
    5.35000p  201.0565m  197.3535m  277.4611m  221.6766m 
    5.36000p  201.2336m  197.5228m  277.9398m  221.9566m 
    5.37000p  201.4108m  197.6921m  278.4184m  222.2367m 
    5.38000p  201.5879m  197.8614m  278.8971m  222.5167m 
    5.39000p  201.7651m  198.0307m  279.3758m  222.7967m 
    5.40000p  201.9422m  198.2000m  279.8545m  223.0767m 
    5.41000p  202.1193m  198.3692m  280.3331m  223.3567m 
    5.42000p  202.2965m  198.5385m  280.8118m  223.6367m 
    5.43000p  202.4736m  198.7078m  281.2905m  223.9167m 
    5.44000p  202.6508m  198.8771m  281.7691m  224.1967m 
    5.45000p  202.8279m  199.0464m  282.2478m  224.4767m 
    5.46000p  203.0050m  199.2157m  282.7265m  224.7567m 
    5.47000p  203.1822m  199.3850m  283.2052m  225.0367m 
    5.48000p  203.3593m  199.5543m  283.6838m  225.3167m 
    5.49000p  203.5365m  199.7236m  284.1625m  225.5967m 
    5.50000p  203.7136m  199.8929m  284.6412m  225.8767m 
    5.51000p  203.8907m  200.0622m  285.1199m  226.1567m 
    5.52000p  204.0679m  200.2315m  285.5985m  226.4367m 
    5.53000p  204.2450m  200.4008m  286.0772m  226.7167m 
    5.54000p  204.4222m  200.5701m  286.5559m  226.9967m 
    5.55000p  204.5993m  200.7394m  287.0345m  227.2768m 
    5.56000p  204.7764m  200.9087m  287.5132m  227.5568m 
    5.57000p  204.9536m  201.0780m  287.9919m  227.8368m 
    5.58000p  205.1307m  201.2473m  288.4706m  228.1168m 
    5.59000p  205.3079m  201.4166m  288.9492m  228.3968m 
    5.60000p  205.4850m  201.5859m  289.4279m  228.6768m 
    5.61000p  205.6621m  201.7552m  289.9066m  228.9568m 
    5.62000p  205.8393m  201.9245m  290.3853m  229.2368m 
    5.63000p  206.0164m  202.0938m  290.8639m  229.5168m 
    5.64000p  206.1936m  202.2631m  291.3426m  229.7968m 
    5.65000p  206.3707m  202.4324m  291.8213m  230.0768m 
    5.66000p  206.5479m  202.6017m  292.2999m  230.3568m 
    5.67000p  206.7104m  202.7618m  292.7597m  230.6236m 
    5.68000p  206.8637m  202.9161m  293.2075m  230.8820m 
    5.69000p  207.0170m  203.0704m  293.6554m  231.1405m 
    5.70000p  207.1703m  203.2248m  294.1032m  231.3989m 
    5.71000p  207.3237m  203.3791m  294.5511m  231.6574m 
    5.72000p  207.4770m  203.5334m  294.9989m  231.9158m 
    5.73000p  207.6303m  203.6878m  295.4468m  232.1743m 
    5.74000p  207.7836m  203.8421m  295.8946m  232.4327m 
    5.75000p  207.9370m  203.9965m  296.3425m  232.6912m 
    5.76000p  208.0903m  204.1508m  296.7903m  232.9497m 
    5.77000p  208.2436m  204.3051m  297.2382m  233.2081m 
    5.78000p  208.3969m  204.4595m  297.6860m  233.4666m 
    5.79000p  208.5503m  204.6138m  298.1339m  233.7250m 
    5.80000p  208.7036m  204.7681m  298.5818m  233.9835m 
    5.81000p  208.8569m  204.9225m  299.0296m  234.2419m 
    5.82000p  209.0102m  205.0768m  299.4775m  234.5004m 
    5.83000p  209.1635m  205.2311m  299.9253m  234.7588m 
    5.84000p  209.3169m  205.3855m  300.3732m  235.0173m 
    5.85000p  209.4702m  205.5398m  300.8210m  235.2757m 
    5.86000p  209.6235m  205.6941m  301.2689m  235.5342m 
    5.87000p  209.7768m  205.8485m  301.7167m  235.7926m 
    5.88000p  209.9302m  206.0028m  302.1646m  236.0511m 
    5.89000p  210.0835m  206.1571m  302.6124m  236.3095m 
    5.90000p  210.2368m  206.3115m  303.0603m  236.5680m 
    5.91000p  210.3901m  206.4658m  303.5081m  236.8265m 
    5.92000p  210.5435m  206.6201m  303.9560m  237.0849m 
    5.93000p  210.6968m  206.7745m  304.4038m  237.3434m 
    5.94000p  210.8501m  206.9288m  304.8517m  237.6018m 
    5.95000p  211.0034m  207.0831m  305.2995m  237.8603m 
    5.96000p  211.1568m  207.2375m  305.7474m  238.1187m 
    5.97000p  211.3101m  207.3918m  306.1952m  238.3772m 
    5.98000p  211.4634m  207.5461m  306.6431m  238.6356m 
    5.99000p  211.6167m  207.7005m  307.0909m  238.8941m 
    6.00000p  211.7701m  207.8548m  307.5388m  239.1525m 
    6.01000p  211.9234m  208.0092m  307.9867m  239.4110m 
    6.02000p  212.0767m  208.1635m  308.4345m  239.6694m 
    6.03000p  212.2300m  208.3178m  308.8824m  239.9279m 
    6.04000p  212.3834m  208.4722m  309.3302m  240.1864m 
    6.05000p  212.5367m  208.6265m  309.7781m  240.4448m 
    6.06000p  212.6900m  208.7808m  310.2259m  240.7033m 
    6.07000p  212.8433m  208.9352m  310.6738m  240.9617m 
    6.08000p  212.9967m  209.0895m  311.1216m  241.2202m 
    6.09000p  213.1500m  209.2438m  311.5695m  241.4786m 
    6.10000p  213.3033m  209.3982m  312.0173m  241.7371m 
    6.11000p  213.4566m  209.5525m  312.4652m  241.9955m 
    6.12000p  213.6100m  209.7068m  312.9130m  242.2540m 
    6.13000p  213.7633m  209.8612m  313.3609m  242.5124m 
    6.14000p  213.9166m  210.0155m  313.8087m  242.7709m 
    6.15000p  214.0699m  210.1698m  314.2566m  243.0293m 
    6.16000p  214.2233m  210.3242m  314.7044m  243.2878m 
    6.17000p  214.3766m  210.4785m  315.1523m  243.5462m 
    6.18000p  214.5299m  210.6328m  315.6001m  243.8047m 
    6.19000p  214.6832m  210.7872m  316.0480m  244.0632m 
    6.20000p  214.8366m  210.9415m  316.4958m  244.3216m 
    6.21000p  214.9899m  211.0958m  316.9437m  244.5801m 
    6.22000p  215.1432m  211.2502m  317.3915m  244.8385m 
    6.23000p  215.2965m  211.4045m  317.8394m  245.0970m 
    6.24000p  215.4499m  211.5589m  318.2873m  245.3554m 
    6.25000p  215.6032m  211.7132m  318.7351m  245.6139m 
    6.26000p  215.7565m  211.8675m  319.1830m  245.8723m 
    6.27000p  215.9098m  212.0219m  319.6308m  246.1308m 
    6.28000p  216.0632m  212.1762m  320.0787m  246.3892m 
    6.29000p  216.2165m  212.3305m  320.5265m  246.6477m 
    6.30000p  216.3698m  212.4849m  320.9744m  246.9061m 
    6.31000p  216.5231m  212.6392m  321.4222m  247.1646m 
    6.32000p  216.6765m  212.7935m  321.8701m  247.4230m 
    6.33000p  216.8298m  212.9479m  322.3179m  247.6815m 
    6.34000p  216.9831m  213.1022m  322.7658m  247.9400m 
    6.35000p  217.1364m  213.2565m  323.2136m  248.1984m 
    6.36000p  217.2898m  213.4109m  323.6615m  248.4569m 
    6.37000p  217.4431m  213.5652m  324.1093m  248.7153m 
    6.38000p  217.5964m  213.7195m  324.5572m  248.9738m 
    6.39000p  217.7497m  213.8739m  325.0050m  249.2322m 
    6.40000p  217.9031m  214.0282m  325.4529m  249.4907m 
    6.41000p  218.0564m  214.1825m  325.9007m  249.7491m 
    6.42000p  218.2097m  214.3369m  326.3486m  250.0076m 
    6.43000p  218.3630m  214.4912m  326.7964m  250.2660m 
    6.44000p  218.5164m  214.6455m  327.2443m  250.5245m 
    6.45000p  218.6697m  214.7999m  327.6921m  250.7829m 
    6.46000p  218.8230m  214.9542m  328.1400m  251.0414m 
    6.47000p  218.9763m  215.1085m  328.5879m  251.2998m 
    6.48000p  219.1296m  215.2629m  329.0357m  251.5583m 
    6.49000p  219.2830m  215.4172m  329.4836m  251.8168m 
    6.50000p  219.4363m  215.5716m  329.9314m  252.0752m 
    6.51000p  219.5896m  215.7259m  330.3793m  252.3337m 
    6.52000p  219.7429m  215.8802m  330.8271m  252.5921m 
    6.53000p  219.8963m  216.0346m  331.2750m  252.8506m 
    6.54000p  220.0496m  216.1889m  331.7228m  253.1090m 
    6.55000p  220.2029m  216.3432m  332.1707m  253.3675m 
    6.56000p  220.3562m  216.4976m  332.6185m  253.6259m 
    6.57000p  220.5096m  216.6519m  333.0664m  253.8844m 
    6.58000p  220.6629m  216.8062m  333.5142m  254.1428m 
    6.59000p  220.8162m  216.9606m  333.9621m  254.4013m 
    6.60000p  220.9695m  217.1149m  334.4099m  254.6597m 
    6.61000p  221.1229m  217.2692m  334.8578m  254.9182m 
    6.62000p  221.2762m  217.4236m  335.3056m  255.1767m 
    6.63000p  221.4295m  217.5779m  335.7535m  255.4351m 
    6.64000p  221.5828m  217.7322m  336.2013m  255.6936m 
    6.65000p  221.7362m  217.8866m  336.6492m  255.9520m 
    6.66000p  221.8895m  218.0409m  337.0970m  256.2105m 
    6.67000p  222.0428m  218.1952m  337.5449m  256.4689m 
    6.68000p  222.1961m  218.3496m  337.9927m  256.7274m 
    6.69000p  222.3444m  218.5012m  338.4320m  256.9811m 
    6.70000p  222.4594m  218.6347m  338.8154m  257.2043m 
    6.71000p  222.5745m  218.7682m  339.1988m  257.4274m 
    6.72000p  222.6895m  218.9018m  339.5821m  257.6506m 
    6.73000p  222.8045m  219.0353m  339.9655m  257.8737m 
    6.74000p  222.9196m  219.1689m  340.3489m  258.0969m 
    6.75000p  223.0346m  219.3024m  340.7322m  258.3200m 
    6.76000p  223.1496m  219.4359m  341.1156m  258.5432m 
    6.77000p  223.2647m  219.5695m  341.4989m  258.7663m 
    6.78000p  223.3797m  219.7030m  341.8823m  258.9895m 
    6.79000p  223.4947m  219.8366m  342.2657m  259.2126m 
    6.80000p  223.6098m  219.9701m  342.6490m  259.4358m 
    6.81000p  223.7248m  220.1036m  343.0324m  259.6589m 
    6.82000p  223.8398m  220.2372m  343.4158m  259.8820m 
    6.83000p  223.9549m  220.3707m  343.7991m  260.1052m 
    6.84000p  224.0699m  220.5043m  344.1825m  260.3283m 
    6.85000p  224.1849m  220.6378m  344.5659m  260.5515m 
    6.86000p  224.3000m  220.7713m  344.9492m  260.7746m 
    6.87000p  224.4150m  220.9049m  345.3326m  260.9978m 
    6.88000p  224.5300m  221.0384m  345.7159m  261.2209m 
    6.89000p  224.6451m  221.1720m  346.0993m  261.4441m 
    6.90000p  224.7601m  221.3055m  346.4827m  261.6672m 
    6.91000p  224.8752m  221.4390m  346.8660m  261.8904m 
    6.92000p  224.9902m  221.5726m  347.2494m  262.1135m 
    6.93000p  225.1052m  221.7061m  347.6328m  262.3367m 
    6.94000p  225.2203m  221.8397m  348.0161m  262.5598m 
    6.95000p  225.3353m  221.9732m  348.3995m  262.7829m 
    6.96000p  225.4503m  222.1067m  348.7829m  263.0061m 
    6.97000p  225.5654m  222.2403m  349.1662m  263.2292m 
    6.98000p  225.6804m  222.3738m  349.5496m  263.4524m 
    6.99000p  225.7954m  222.5074m  349.9329m  263.6755m 
    7.00000p  225.9105m  222.6409m  350.3163m  263.8987m 
    7.01000p  226.0255m  222.7744m  350.6997m  264.1218m 
    7.02000p  226.1405m  222.9080m  351.0830m  264.3450m 
    7.03000p  226.2556m  223.0415m  351.4664m  264.5681m 
    7.04000p  226.3706m  223.1751m  351.8498m  264.7913m 
    7.05000p  226.4856m  223.3086m  352.2331m  265.0144m 
    7.06000p  226.6007m  223.4421m  352.6165m  265.2376m 
    7.07000p  226.7157m  223.5757m  352.9999m  265.4607m 
    7.08000p  226.8307m  223.7092m  353.3832m  265.6839m 
    7.09000p  226.9458m  223.8428m  353.7666m  265.9070m 
    7.10000p  227.0608m  223.9763m  354.1499m  266.1301m 
    7.11000p  227.1759m  224.1098m  354.5333m  266.3533m 
    7.12000p  227.2909m  224.2434m  354.9167m  266.5764m 
    7.13000p  227.4059m  224.3769m  355.3000m  266.7996m 
    7.14000p  227.5210m  224.5105m  355.6834m  267.0227m 
    7.15000p  227.6360m  224.6440m  356.0668m  267.2459m 
    7.16000p  227.7510m  224.7775m  356.4501m  267.4690m 
    7.17000p  227.8661m  224.9111m  356.8335m  267.6922m 
    7.18000p  227.9811m  225.0446m  357.2169m  267.9153m 
    7.19000p  228.0961m  225.1782m  357.6002m  268.1385m 
    7.20000p  228.2112m  225.3117m  357.9836m  268.3616m 
    7.21000p  228.3262m  225.4452m  358.3669m  268.5848m 
    7.22000p  228.4412m  225.5788m  358.7503m  268.8079m 
    7.23000p  228.5563m  225.7123m  359.1337m  269.0310m 
    7.24000p  228.6713m  225.8459m  359.5170m  269.2542m 
    7.25000p  228.7863m  225.9794m  359.9004m  269.4773m 
    7.26000p  228.9014m  226.1129m  360.2838m  269.7005m 
    7.27000p  229.0164m  226.2465m  360.6671m  269.9236m 
    7.28000p  229.1314m  226.3800m  361.0505m  270.1468m 
    7.29000p  229.2465m  226.5136m  361.4339m  270.3699m 
    7.30000p  229.3615m  226.6471m  361.8172m  270.5931m 
    7.31000p  229.4765m  226.7806m  362.2006m  270.8162m 
    7.32000p  229.5916m  226.9142m  362.5839m  271.0394m 
    7.33000p  229.7066m  227.0477m  362.9673m  271.2625m 
    7.34000p  229.8217m  227.1813m  363.3507m  271.4857m 
    7.35000p  229.9367m  227.3148m  363.7340m  271.7088m 
    7.36000p  230.0517m  227.4483m  364.1174m  271.9320m 
    7.37000p  230.1668m  227.5819m  364.5008m  272.1551m 
    7.38000p  230.2818m  227.7154m  364.8841m  272.3782m 
    7.39000p  230.3968m  227.8490m  365.2675m  272.6014m 
    7.40000p  230.5119m  227.9825m  365.6509m  272.8245m 
    7.41000p  230.6269m  228.1160m  366.0342m  273.0477m 
    7.42000p  230.7419m  228.2496m  366.4176m  273.2708m 
    7.43000p  230.8570m  228.3831m  366.8009m  273.4940m 
    7.44000p  230.9720m  228.5167m  367.1843m  273.7171m 
    7.45000p  231.0870m  228.6502m  367.5677m  273.9403m 
    7.46000p  231.2021m  228.7837m  367.9510m  274.1634m 
    7.47000p  231.3171m  228.9173m  368.3344m  274.3866m 
    7.48000p  231.4321m  229.0508m  368.7178m  274.6097m 
    7.49000p  231.5472m  229.1844m  369.1011m  274.8329m 
    7.50000p  231.6622m  229.3179m  369.4845m  275.0560m 
    7.51000p  231.7772m  229.4514m  369.8678m  275.2792m 
    7.52000p  231.8923m  229.5850m  370.2512m  275.5023m 
    7.53000p  232.0073m  229.7185m  370.6346m  275.7254m 
    7.54000p  232.1224m  229.8521m  371.0179m  275.9486m 
    7.55000p  232.2374m  229.9856m  371.4013m  276.1717m 
    7.56000p  232.3524m  230.1191m  371.7847m  276.3949m 
    7.57000p  232.4675m  230.2527m  372.1680m  276.6180m 
    7.58000p  232.5825m  230.3862m  372.5514m  276.8412m 
    7.59000p  232.6975m  230.5198m  372.9348m  277.0643m 
    7.60000p  232.8126m  230.6533m  373.3181m  277.2875m 
    7.61000p  232.9276m  230.7868m  373.7015m  277.5106m 
    7.62000p  233.0426m  230.9204m  374.0848m  277.7338m 
    7.63000p  233.1577m  231.0539m  374.4682m  277.9569m 
    7.64000p  233.2727m  231.1875m  374.8516m  278.1801m 
    7.65000p  233.3877m  231.3210m  375.2349m  278.4032m 
    7.66000p  233.5028m  231.4545m  375.6183m  278.6263m 
    7.67000p  233.6178m  231.5881m  376.0017m  278.8495m 
    7.68000p  233.7328m  231.7216m  376.3850m  279.0726m 
    7.69000p  233.8479m  231.8552m  376.7684m  279.2958m 
    7.70000p  233.9629m  231.9887m  377.1518m  279.5189m 
    7.71000p  234.0779m  232.1222m  377.5351m  279.7421m 
    7.72000p  234.1930m  232.2558m  377.9185m  279.9652m 
    7.73000p  234.3080m  232.3893m  378.3018m  280.1884m 
    7.74000p  234.4231m  232.5229m  378.6852m  280.4115m 
    7.75000p  234.5381m  232.6564m  379.0686m  280.6347m 
    7.76000p  234.6531m  232.7899m  379.4519m  280.8578m 
    7.77000p  234.7682m  232.9235m  379.8353m  281.0810m 
    7.78000p  234.8832m  233.0570m  380.2187m  281.3041m 
    7.79000p  234.9982m  233.1906m  380.6020m  281.5273m 
    7.80000p  235.1133m  233.3241m  380.9854m  281.7504m 
    7.81000p  235.2283m  233.4577m  381.3688m  281.9735m 
    7.82000p  235.3433m  233.5912m  381.7521m  282.1967m 
    7.83000p  235.4584m  233.7247m  382.1355m  282.4198m 
    7.84000p  235.5734m  233.8583m  382.5188m  282.6430m 
    7.85000p  235.6884m  233.9918m  382.9022m  282.8661m 
    7.86000p  235.8035m  234.1254m  383.2856m  283.0893m 
    7.87000p  235.9185m  234.2589m  383.6689m  283.3124m 
    7.88000p  236.0335m  234.3924m  384.0523m  283.5356m 
    7.89000p  236.1486m  234.5260m  384.4357m  283.7587m 
    7.90000p  236.2636m  234.6595m  384.8190m  283.9819m 
    7.91000p  236.3786m  234.7931m  385.2024m  284.2050m 
    7.92000p  236.4937m  234.9266m  385.5858m  284.4282m 
    7.93000p  236.6087m  235.0601m  385.9691m  284.6513m 
    7.94000p  236.7238m  235.1937m  386.3525m  284.8745m 
    7.95000p  236.8388m  235.3272m  386.7358m  285.0976m 
    7.96000p  236.9538m  235.4608m  387.1192m  285.3207m 
    7.97000p  237.0689m  235.5943m  387.5026m  285.5439m 
    7.98000p  237.1839m  235.7278m  387.8859m  285.7670m 
    7.99000p  237.2989m  235.8614m  388.2693m  285.9902m 
    8.00000p  237.4140m  235.9949m  388.6527m  286.2133m 
    8.01000p  237.5290m  236.1285m  389.0360m  286.4365m 
    8.02000p  237.6440m  236.2620m  389.4194m  286.6596m 
    8.03000p  237.7591m  236.3955m  389.8028m  286.8828m 
    8.04000p  237.8741m  236.5291m  390.1861m  287.1059m 
    8.05000p  237.9891m  236.6626m  390.5695m  287.3291m 
    8.06000p  238.1042m  236.7962m  390.9528m  287.5522m 
    8.07000p  238.2192m  236.9297m  391.3362m  287.7754m 
    8.08000p  238.3342m  237.0632m  391.7196m  287.9985m 
    8.09000p  238.4493m  237.1968m  392.1029m  288.2216m 
    8.10000p  238.5643m  237.3303m  392.4863m  288.4448m 
    8.11000p  238.6793m  237.4639m  392.8697m  288.6679m 
    8.12000p  238.7944m  237.5974m  393.2530m  288.8911m 
    8.13000p  238.9094m  237.7309m  393.6364m  289.1142m 
    8.14000p  239.0245m  237.8645m  394.0198m  289.3374m 
    8.15000p  239.1395m  237.9980m  394.4031m  289.5605m 
    8.16000p  239.2545m  238.1316m  394.7865m  289.7837m 
    8.17000p  239.3696m  238.2651m  395.1698m  290.0068m 
    8.18000p  239.4846m  238.3986m  395.5532m  290.2300m 
    8.19000p  239.5996m  238.5322m  395.9366m  290.4531m 
    8.20000p  239.7147m  238.6657m  396.3199m  290.6763m 
    8.21000p  239.8297m  238.7993m  396.7033m  290.8994m 
    8.22000p  239.9447m  238.9328m  397.0867m  291.1226m 
    8.23000p  240.0598m  239.0663m  397.4700m  291.3457m 
    8.24000p  240.1748m  239.1999m  397.8534m  291.5688m 
    8.25000p  240.2898m  239.3334m  398.2367m  291.7920m 
    8.26000p  240.4049m  239.4670m  398.6201m  292.0151m 
    8.27000p  240.5199m  239.6005m  399.0035m  292.2383m 
    8.28000p  240.6349m  239.7340m  399.3868m  292.4614m 
    8.29000p  240.7500m  239.8676m  399.7702m  292.6846m 
    8.30000p  240.8650m  240.0011m  400.1536m  292.9077m 
    8.31000p  240.9800m  240.1347m  400.5369m  293.1309m 
    8.32000p  241.0951m  240.2682m  400.9203m  293.3540m 
    8.33000p  241.2101m  240.4017m  401.3037m  293.5772m 
    8.34000p  241.3252m  240.5353m  401.6870m  293.8003m 
    8.35000p  241.4402m  240.6688m  402.0704m  294.0235m 
    8.36000p  241.5552m  240.8024m  402.4537m  294.2466m 
    8.37000p  241.6703m  240.9359m  402.8371m  294.4698m 
    8.38000p  241.7853m  241.0694m  403.2205m  294.6929m 
    8.39000p  241.9003m  241.2030m  403.6038m  294.9160m 
    8.40000p  242.0154m  241.3365m  403.9872m  295.1392m 
    8.41000p  242.1304m  241.4701m  404.3706m  295.3623m 
    8.42000p  242.2454m  241.6036m  404.7539m  295.5855m 
    8.43000p  242.3605m  241.7371m  405.1373m  295.8086m 
    8.44000p  242.4755m  241.8707m  405.5207m  296.0318m 
    8.45000p  242.5905m  242.0042m  405.9040m  296.2549m 
    8.46000p  242.7056m  242.1378m  406.2874m  296.4781m 
    8.47000p  242.8206m  242.2713m  406.6707m  296.7012m 
    8.48000p  242.9356m  242.4048m  407.0541m  296.9244m 
    8.49000p  243.0507m  242.5384m  407.4375m  297.1475m 
    8.50000p  243.1657m  242.6719m  407.8208m  297.3707m 
    8.51000p  243.2807m  242.8055m  408.2042m  297.5938m 
    8.52000p  243.3958m  242.9390m  408.5876m  297.8169m 
    8.53000p  243.5108m  243.0725m  408.9709m  298.0401m 
    8.54000p  243.6258m  243.2061m  409.3543m  298.2632m 
    8.55000p  243.7409m  243.3396m  409.7377m  298.4864m 
    8.56000p  243.8559m  243.4732m  410.1210m  298.7095m 
    8.57000p  243.9710m  243.6067m  410.5044m  298.9327m 
    8.58000p  244.0860m  243.7402m  410.8877m  299.1558m 
    8.59000p  244.2010m  243.8738m  411.2711m  299.3790m 
    8.60000p  244.3161m  244.0073m  411.6545m  299.6021m 
    8.61000p  244.4311m  244.1409m  412.0378m  299.8253m 
    8.62000p  244.5461m  244.2744m  412.4212m  300.0484m 
    8.63000p  244.6612m  244.4079m  412.8046m  300.2716m 
    8.64000p  244.7762m  244.5415m  413.1879m  300.4947m 
    8.65000p  244.8643m  244.6598m  413.5054m  300.6874m 
    8.66000p  244.9426m  244.7727m  413.7989m  300.8689m 
    8.67000p  245.0208m  244.8855m  414.0923m  301.0505m 
    8.68000p  245.0991m  244.9983m  414.3858m  301.2320m 
    8.69000p  245.1773m  245.1111m  414.6792m  301.4136m 
    8.70000p  245.2556m  245.2239m  414.9727m  301.5951m 
    8.71000p  245.3339m  245.3367m  415.2661m  301.7767m 
    8.72000p  245.4121m  245.4496m  415.5596m  301.9582m 
    8.73000p  245.4904m  245.5624m  415.8530m  302.1398m 
    8.74000p  245.5686m  245.6752m  416.1465m  302.3214m 
    8.75000p  245.6469m  245.7880m  416.4399m  302.5029m 
    8.76000p  245.7252m  245.9008m  416.7333m  302.6845m 
    8.77000p  245.8034m  246.0136m  417.0268m  302.8660m 
    8.78000p  245.8817m  246.1265m  417.3202m  303.0476m 
    8.79000p  245.9599m  246.2393m  417.6137m  303.2291m 
    8.80000p  246.0382m  246.3521m  417.9071m  303.4107m 
    8.81000p  246.1165m  246.4649m  418.2006m  303.5922m 
    8.82000p  246.1947m  246.5777m  418.4940m  303.7738m 
    8.83000p  246.2730m  246.6905m  418.7875m  303.9553m 
    8.84000p  246.3512m  246.8033m  419.0809m  304.1369m 
    8.85000p  246.4295m  246.9162m  419.3744m  304.3184m 
    8.86000p  246.5077m  247.0290m  419.6678m  304.5000m 
    8.87000p  246.5860m  247.1418m  419.9612m  304.6815m 
    8.88000p  246.6643m  247.2546m  420.2547m  304.8631m 
    8.89000p  246.7425m  247.3674m  420.5481m  305.0446m 
    8.90000p  246.8208m  247.4802m  420.8416m  305.2262m 
    8.91000p  246.8990m  247.5931m  421.1350m  305.4077m 
    8.92000p  246.9773m  247.7059m  421.4285m  305.5893m 
    8.93000p  247.0556m  247.8187m  421.7219m  305.7708m 
    8.94000p  247.1338m  247.9315m  422.0154m  305.9524m 
    8.95000p  247.2121m  248.0443m  422.3088m  306.1339m 
    8.96000p  247.2903m  248.1571m  422.6022m  306.3155m 
    8.97000p  247.3686m  248.2700m  422.8957m  306.4970m 
    8.98000p  247.4469m  248.3828m  423.1891m  306.6786m 
    8.99000p  247.5251m  248.4956m  423.4826m  306.8601m 
    9.00000p  247.6034m  248.6084m  423.7760m  307.0417m 
    9.01000p  247.6816m  248.7212m  424.0695m  307.2232m 
    9.02000p  247.7599m  248.8340m  424.3629m  307.4048m 
    9.03000p  247.8382m  248.9468m  424.6564m  307.5863m 
    9.04000p  247.9164m  249.0597m  424.9498m  307.7679m 
    9.05000p  247.9947m  249.1725m  425.2433m  307.9494m 
    9.06000p  248.0729m  249.2853m  425.5367m  308.1310m 
    9.07000p  248.1512m  249.3981m  425.8301m  308.3125m 
    9.08000p  248.2294m  249.5109m  426.1236m  308.4941m 
    9.09000p  248.3077m  249.6237m  426.4170m  308.6756m 
    9.10000p  248.3860m  249.7366m  426.7105m  308.8572m 
    9.11000p  248.4642m  249.8494m  427.0039m  309.0387m 
    9.12000p  248.5425m  249.9622m  427.2974m  309.2203m 
    9.13000p  248.6207m  250.0750m  427.5908m  309.4018m 
    9.14000p  248.6990m  250.1878m  427.8843m  309.5834m 
    9.15000p  248.7773m  250.3006m  428.1777m  309.7649m 
    9.16000p  248.8555m  250.4135m  428.4712m  309.9465m 
    9.17000p  248.9338m  250.5263m  428.7646m  310.1280m 
    9.18000p  249.0120m  250.6391m  429.0580m  310.3096m 
    9.19000p  249.0903m  250.7519m  429.3515m  310.4911m 
    9.20000p  249.1686m  250.8647m  429.6449m  310.6727m 
    9.21000p  249.2468m  250.9775m  429.9384m  310.8542m 
    9.22000p  249.3251m  251.0904m  430.2318m  311.0358m 
    9.23000p  249.4033m  251.2032m  430.5253m  311.2173m 
    9.24000p  249.4816m  251.3160m  430.8187m  311.3989m 
    9.25000p  249.5599m  251.4288m  431.1122m  311.5804m 
    9.26000p  249.6381m  251.5416m  431.4056m  311.7620m 
    9.27000p  249.7164m  251.6544m  431.6991m  311.9435m 
    9.28000p  249.7946m  251.7672m  431.9925m  312.1251m 
    9.29000p  249.8729m  251.8801m  432.2859m  312.3066m 
    9.30000p  249.9512m  251.9929m  432.5794m  312.4882m 
    9.31000p  250.0294m  252.1057m  432.8728m  312.6697m 
    9.32000p  250.1077m  252.2185m  433.1663m  312.8513m 
    9.33000p  250.1859m  252.3313m  433.4597m  313.0328m 
    9.34000p  250.2642m  252.4441m  433.7532m  313.2144m 
    9.35000p  250.3424m  252.5570m  434.0466m  313.3960m 
    9.36000p  250.4207m  252.6698m  434.3401m  313.5775m 
    9.37000p  250.4990m  252.7826m  434.6335m  313.7591m 
    9.38000p  250.5772m  252.8954m  434.9270m  313.9406m 
    9.39000p  250.6555m  253.0082m  435.2204m  314.1222m 
    9.40000p  250.7337m  253.1210m  435.5138m  314.3037m 
    9.41000p  250.8120m  253.2339m  435.8073m  314.4853m 
    9.42000p  250.8903m  253.3467m  436.1007m  314.6668m 
    9.43000p  250.9685m  253.4595m  436.3942m  314.8484m 
    9.44000p  251.0468m  253.5723m  436.6876m  315.0299m 
    9.45000p  251.1250m  253.6851m  436.9811m  315.2115m 
    9.46000p  251.2033m  253.7979m  437.2745m  315.3930m 
    9.47000p  251.2816m  253.9107m  437.5680m  315.5746m 
    9.48000p  251.3598m  254.0236m  437.8614m  315.7561m 
    9.49000p  251.4381m  254.1364m  438.1549m  315.9377m 
    9.50000p  251.5163m  254.2492m  438.4483m  316.1192m 
    9.51000p  251.5946m  254.3620m  438.7417m  316.3008m 
    9.52000p  251.6729m  254.4748m  439.0352m  316.4823m 
    9.53000p  251.7511m  254.5876m  439.3286m  316.6639m 
    9.54000p  251.8294m  254.7005m  439.6221m  316.8454m 
    9.55000p  251.9076m  254.8133m  439.9155m  317.0270m 
    9.56000p  251.9859m  254.9261m  440.2090m  317.2085m 
    9.57000p  252.0642m  255.0389m  440.5024m  317.3901m 
    9.58000p  252.1424m  255.1517m  440.7959m  317.5716m 
    9.59000p  252.2207m  255.2645m  441.0893m  317.7532m 
    9.60000p  252.2989m  255.3774m  441.3828m  317.9347m 
    9.61000p  252.3772m  255.4902m  441.6762m  318.1163m 
    9.62000p  252.4554m  255.6030m  441.9696m  318.2978m 
    9.63000p  252.5337m  255.7158m  442.2631m  318.4794m 
    9.64000p  252.6120m  255.8286m  442.5565m  318.6609m 
    9.65000p  252.6902m  255.9414m  442.8500m  318.8425m 
    9.66000p  252.7685m  256.0542m  443.1434m  319.0240m 
    9.67000p  252.8467m  256.1671m  443.4369m  319.2056m 
    9.68000p  252.9250m  256.2799m  443.7303m  319.3871m 
    9.69000p  253.0033m  256.3927m  444.0238m  319.5687m 
    9.70000p  253.0815m  256.5055m  444.3172m  319.7502m 
    9.71000p  253.1598m  256.6183m  444.6107m  319.9318m 
    9.72000p  253.2380m  256.7311m  444.9041m  320.1133m 
    9.73000p  253.3163m  256.8440m  445.1975m  320.2949m 
    9.74000p  253.3946m  256.9568m  445.4910m  320.4764m 
    9.75000p  253.4728m  257.0696m  445.7844m  320.6580m 
    9.76000p  253.5511m  257.1824m  446.0779m  320.8395m 
    9.77000p  253.6293m  257.2952m  446.3713m  321.0211m 
    9.78000p  253.7076m  257.4080m  446.6648m  321.2026m 
    9.79000p  253.7859m  257.5209m  446.9582m  321.3842m 
    9.80000p  253.8641m  257.6337m  447.2517m  321.5657m 
    9.81000p  253.9424m  257.7465m  447.5451m  321.7473m 
    9.82000p  254.0206m  257.8593m  447.8385m  321.9288m 
    9.83000p  254.0989m  257.9721m  448.1320m  322.1104m 
    9.84000p  254.1771m  258.0849m  448.4254m  322.2919m 
    9.85000p  254.2554m  258.1977m  448.7189m  322.4735m 
    9.86000p  254.3337m  258.3106m  449.0123m  322.6550m 
    9.87000p  254.4119m  258.4234m  449.3058m  322.8366m 
    9.88000p  254.4902m  258.5362m  449.5992m  323.0181m 
    9.89000p  254.5684m  258.6490m  449.8927m  323.1997m 
    9.90000p  254.6467m  258.7618m  450.1861m  323.3812m 
    9.91000p  254.7250m  258.8746m  450.4796m  323.5628m 
    9.92000p  254.8032m  258.9875m  450.7730m  323.7443m 
    9.93000p  254.8815m  259.1003m  451.0664m  323.9259m 
    9.94000p  254.9597m  259.2131m  451.3599m  324.1075m 
    9.95000p  255.0380m  259.3259m  451.6533m  324.2890m 
    9.96000p  255.1163m  259.4387m  451.9468m  324.4706m 
    9.97000p  255.1945m  259.5515m  452.2402m  324.6521m 
    9.98000p  255.2728m  259.6644m  452.5337m  324.8337m 
    9.99000p  255.3510m  259.7772m  452.8271m  325.0152m 
   10.00000p  255.4293m  259.8900m  453.1206m  325.1968m 
   10.01000p  255.5076m  260.0028m  453.4140m  325.3783m 
   10.02000p  255.5858m  260.1156m  453.7075m  325.5599m 
   10.03000p  255.6641m  260.2284m  454.0009m  325.7414m 
   10.04000p  255.7423m  260.3412m  454.2943m  325.9230m 
   10.05000p  255.8206m  260.4541m  454.5878m  326.1045m 
   10.06000p  255.8989m  260.5669m  454.8812m  326.2861m 
   10.07000p  255.9771m  260.6797m  455.1747m  326.4676m 
   10.08000p  256.0554m  260.7925m  455.4681m  326.6492m 
   10.09000p  256.1336m  260.9053m  455.7616m  326.8307m 
   10.10000p  256.2119m  261.0181m  456.0550m  327.0123m 
   10.11000p  256.2901m  261.1310m  456.3485m  327.1938m 
   10.12000p  256.3684m  261.2438m  456.6419m  327.3754m 
   10.13000p  256.4467m  261.3566m  456.9354m  327.5569m 
   10.14000p  256.5249m  261.4694m  457.2288m  327.7385m 
   10.15000p  256.6032m  261.5822m  457.5222m  327.9200m 
   10.16000p  256.6814m  261.6950m  457.8157m  328.1016m 
   10.17000p  256.7597m  261.8079m  458.1091m  328.2831m 
   10.18000p  256.8380m  261.9207m  458.4026m  328.4647m 
   10.19000p  256.9162m  262.0335m  458.6960m  328.6462m 
   10.20000p  256.9945m  262.1463m  458.9895m  328.8278m 
   10.21000p  257.0727m  262.2591m  459.2829m  329.0093m 
   10.22000p  257.1510m  262.3719m  459.5764m  329.1909m 
   10.23000p  257.2293m  262.4847m  459.8698m  329.3724m 
   10.24000p  257.3075m  262.5976m  460.1633m  329.5540m 
   10.25000p  257.3858m  262.7104m  460.4567m  329.7355m 
   10.26000p  257.4640m  262.8232m  460.7501m  329.9171m 
   10.27000p  257.5423m  262.9360m  461.0436m  330.0986m 
   10.28000p  257.6206m  263.0488m  461.3370m  330.2802m 
   10.29000p  257.6988m  263.1616m  461.6305m  330.4617m 
   10.30000p  257.7771m  263.2745m  461.9239m  330.6433m 
   10.31000p  257.8553m  263.3873m  462.2174m  330.8248m 
   10.32000p  257.9336m  263.5001m  462.5108m  331.0064m 
   10.33000p  258.0119m  263.6129m  462.8043m  331.1879m 
   10.34000p  258.0901m  263.7257m  463.0977m  331.3695m 
   10.35000p  258.1684m  263.8385m  463.3912m  331.5510m 
   10.36000p  258.2466m  263.9514m  463.6846m  331.7326m 
   10.37000p  258.3249m  264.0642m  463.9780m  331.9141m 
   10.38000p  258.4031m  264.1770m  464.2715m  332.0957m 
   10.39000p  258.4814m  264.2898m  464.5649m  332.2772m 
   10.40000p  258.5597m  264.4026m  464.8584m  332.4588m 
   10.41000p  258.6379m  264.5154m  465.1518m  332.6403m 
   10.42000p  258.7162m  264.6283m  465.4453m  332.8219m 
[...]
  296.90000p  181.2750n  699.9846m   24.6761u  699.9845m 
  296.91000p  181.2819n  699.9846m   24.6748u  699.9845m 
  296.92000p  181.2887n  699.9846m   24.6735u  699.9845m 
  296.93000p  181.2956n  699.9846m   24.6722u  699.9845m 
  296.94000p  181.3025n  699.9846m   24.6709u  699.9845m 
  296.95000p  181.3094n  699.9846m   24.6696u  699.9845m 
  296.96000p  181.3162n  699.9846m   24.6683u  699.9845m 
  296.97000p  181.3231n  699.9846m   24.6670u  699.9845m 
  296.98000p  181.3300n  699.9846m   24.6657u  699.9845m 
  296.99000p  181.3369n  699.9846m   24.6644u  699.9845m 
  297.00000p  181.3437n  699.9846m   24.6631u  699.9845m 
  297.01000p  181.3506n  699.9846m   24.6618u  699.9845m 
  297.02000p  181.3575n  699.9846m   24.6605u  699.9845m 
  297.03000p  181.3644n  699.9846m   24.6592u  699.9845m 
  297.04000p  181.3713n  699.9846m   24.6579u  699.9845m 
  297.05000p  181.3781n  699.9846m   24.6566u  699.9845m 
  297.06000p  181.3850n  699.9846m   24.6553u  699.9845m 
  297.07000p  181.3919n  699.9846m   24.6540u  699.9845m 
  297.08000p  181.3988n  699.9846m   24.6527u  699.9845m 
  297.09000p  181.4056n  699.9846m   24.6514u  699.9845m 
  297.10000p  181.4125n  699.9846m   24.6501u  699.9845m 
  297.11000p  181.4194n  699.9846m   24.6488u  699.9845m 
  297.12000p  181.4263n  699.9846m   24.6475u  699.9845m 
  297.13000p  181.4331n  699.9846m   24.6462u  699.9845m 
  297.14000p  181.4400n  699.9846m   24.6449u  699.9845m 
  297.15000p  181.4469n  699.9846m   24.6436u  699.9845m 
  297.16000p  181.4538n  699.9846m   24.6423u  699.9845m 
  297.17000p  181.4607n  699.9846m   24.6410u  699.9845m 
  297.18000p  181.4675n  699.9846m   24.6397u  699.9845m 
  297.19000p  181.4744n  699.9846m   24.6384u  699.9845m 
  297.20000p  181.4813n  699.9846m   24.6371u  699.9845m 
  297.21000p  181.4882n  699.9846m   24.6358u  699.9845m 
  297.22000p  181.4950n  699.9846m   24.6345u  699.9845m 
  297.23000p  181.5019n  699.9846m   24.6332u  699.9845m 
  297.24000p  181.5088n  699.9846m   24.6320u  699.9845m 
  297.25000p  181.5157n  699.9846m   24.6307u  699.9845m 
  297.26000p  181.5225n  699.9846m   24.6294u  699.9845m 
  297.27000p  181.5294n  699.9846m   24.6281u  699.9846m 
  297.28000p  181.5363n  699.9846m   24.6268u  699.9846m 
  297.29000p  181.5432n  699.9846m   24.6255u  699.9846m 
  297.30000p  181.5501n  699.9846m   24.6242u  699.9846m 
  297.31000p  181.5569n  699.9846m   24.6229u  699.9846m 
  297.32000p  181.5638n  699.9846m   24.6216u  699.9846m 
  297.33000p  181.5707n  699.9846m   24.6203u  699.9846m 
  297.34000p  181.5776n  699.9846m   24.6190u  699.9846m 
  297.35000p  181.5844n  699.9846m   24.6177u  699.9846m 
  297.36000p  181.5913n  699.9846m   24.6164u  699.9846m 
  297.37000p  181.5982n  699.9846m   24.6151u  699.9846m 
  297.38000p  181.6051n  699.9846m   24.6138u  699.9846m 
  297.39000p  181.6119n  699.9846m   24.6125u  699.9846m 
  297.40000p  181.6188n  699.9846m   24.6112u  699.9846m 
  297.41000p  181.6257n  699.9846m   24.6099u  699.9846m 
  297.42000p  181.6326n  699.9846m   24.6086u  699.9846m 
  297.43000p  181.6395n  699.9846m   24.6073u  699.9846m 
  297.44000p  181.6463n  699.9846m   24.6060u  699.9846m 
  297.45000p  181.6532n  699.9846m   24.6047u  699.9846m 
  297.46000p  181.6601n  699.9846m   24.6034u  699.9846m 
  297.47000p  181.6670n  699.9846m   24.6021u  699.9846m 
  297.48000p  181.6738n  699.9846m   24.6008u  699.9846m 
  297.49000p  181.6807n  699.9846m   24.5995u  699.9846m 
  297.50000p  181.6876n  699.9846m   24.5982u  699.9846m 
  297.51000p  181.6945n  699.9846m   24.5969u  699.9846m 
  297.52000p  181.7013n  699.9846m   24.5956u  699.9846m 
  297.53000p  181.7082n  699.9846m   24.5943u  699.9846m 
  297.54000p  181.7151n  699.9846m   24.5930u  699.9846m 
  297.55000p  181.7220n  699.9846m   24.5917u  699.9846m 
  297.56000p  181.7289n  699.9846m   24.5904u  699.9846m 
  297.57000p  181.7357n  699.9846m   24.5891u  699.9846m 
  297.58000p  181.7426n  699.9846m   24.5878u  699.9846m 
  297.59000p  181.7495n  699.9846m   24.5865u  699.9846m 
  297.60000p  181.7564n  699.9846m   24.5852u  699.9846m 
  297.61000p  181.7632n  699.9846m   24.5839u  699.9846m 
  297.62000p  181.7701n  699.9846m   24.5826u  699.9846m 
  297.63000p  181.7770n  699.9846m   24.5813u  699.9846m 
  297.64000p  181.7839n  699.9846m   24.5800u  699.9846m 
  297.65000p  181.7907n  699.9846m   24.5787u  699.9846m 
  297.66000p  181.7976n  699.9846m   24.5774u  699.9846m 
  297.67000p  181.8045n  699.9846m   24.5761u  699.9846m 
  297.68000p  181.8114n  699.9846m   24.5748u  699.9846m 
  297.69000p  181.8183n  699.9846m   24.5735u  699.9846m 
  297.70000p  181.8251n  699.9846m   24.5722u  699.9846m 
  297.71000p  181.8320n  699.9846m   24.5709u  699.9846m 
  297.72000p  181.8389n  699.9846m   24.5696u  699.9846m 
  297.73000p  181.8458n  699.9846m   24.5683u  699.9846m 
  297.74000p  181.8526n  699.9846m   24.5670u  699.9846m 
  297.75000p  181.8595n  699.9846m   24.5657u  699.9846m 
  297.76000p  181.8664n  699.9846m   24.5644u  699.9846m 
  297.77000p  181.8733n  699.9846m   24.5631u  699.9846m 
  297.78000p  181.8801n  699.9846m   24.5618u  699.9846m 
  297.79000p  181.8870n  699.9846m   24.5605u  699.9846m 
  297.80000p  181.8939n  699.9846m   24.5592u  699.9846m 
  297.81000p  181.9008n  699.9846m   24.5579u  699.9846m 
  297.82000p  181.9077n  699.9846m   24.5566u  699.9846m 
  297.83000p  181.9145n  699.9846m   24.5553u  699.9846m 
  297.84000p  181.9214n  699.9846m   24.5540u  699.9846m 
  297.85000p  181.9283n  699.9846m   24.5527u  699.9846m 
  297.86000p  181.9352n  699.9846m   24.5514u  699.9846m 
  297.87000p  181.9420n  699.9846m   24.5501u  699.9846m 
  297.88000p  181.9489n  699.9846m   24.5488u  699.9846m 
  297.89000p  181.9558n  699.9846m   24.5475u  699.9846m 
  297.90000p  181.9627n  699.9846m   24.5462u  699.9846m 
  297.91000p  181.9695n  699.9846m   24.5449u  699.9846m 
  297.92000p  181.9764n  699.9846m   24.5436u  699.9846m 
  297.93000p  181.9833n  699.9846m   24.5423u  699.9846m 
  297.94000p  181.9902n  699.9846m   24.5410u  699.9846m 
  297.95000p  181.9971n  699.9846m   24.5397u  699.9846m 
  297.96000p  182.0039n  699.9846m   24.5384u  699.9846m 
  297.97000p  182.0108n  699.9846m   24.5371u  699.9846m 
  297.98000p  182.0177n  699.9846m   24.5358u  699.9846m 
  297.99000p  182.0246n  699.9846m   24.5345u  699.9846m 
  298.00000p  182.0314n  699.9846m   24.5332u  699.9846m 
  298.01000p  182.0383n  699.9846m   24.5319u  699.9846m 
  298.02000p  182.0452n  699.9846m   24.5306u  699.9846m 
  298.03000p  182.0521n  699.9846m   24.5293u  699.9846m 
  298.04000p  182.0589n  699.9846m   24.5280u  699.9846m 
  298.05000p  182.0658n  699.9846m   24.5267u  699.9846m 
  298.06000p  182.0727n  699.9846m   24.5254u  699.9846m 
  298.07000p  182.0796n  699.9846m   24.5241u  699.9846m 
  298.08000p  182.0865n  699.9846m   24.5228u  699.9846m 
  298.09000p  182.0933n  699.9846m   24.5215u  699.9846m 
  298.10000p  182.1002n  699.9846m   24.5202u  699.9846m 
  298.11000p  182.1071n  699.9846m   24.5190u  699.9846m 
  298.12000p  182.1140n  699.9846m   24.5177u  699.9846m 
  298.13000p  182.1208n  699.9846m   24.5164u  699.9846m 
  298.14000p  182.1277n  699.9846m   24.5151u  699.9846m 
  298.15000p  182.1346n  699.9846m   24.5138u  699.9846m 
  298.16000p  182.1415n  699.9846m   24.5125u  699.9846m 
  298.17000p  182.1483n  699.9846m   24.5112u  699.9846m 
  298.18000p  182.1552n  699.9847m   24.5099u  699.9846m 
  298.19000p  182.1621n  699.9847m   24.5086u  699.9846m 
  298.20000p  182.1690n  699.9847m   24.5073u  699.9846m 
  298.21000p  182.1759n  699.9847m   24.5060u  699.9846m 
  298.22000p  182.1827n  699.9847m   24.5047u  699.9846m 
  298.23000p  182.1896n  699.9847m   24.5034u  699.9846m 
  298.24000p  182.1965n  699.9847m   24.5021u  699.9846m 
  298.25000p  182.2034n  699.9847m   24.5008u  699.9846m 
  298.26000p  182.2102n  699.9847m   24.4995u  699.9846m 
  298.27000p  182.2171n  699.9847m   24.4982u  699.9846m 
  298.28000p  182.2240n  699.9847m   24.4969u  699.9846m 
  298.29000p  182.2309n  699.9847m   24.4956u  699.9846m 
  298.30000p  182.2377n  699.9847m   24.4943u  699.9846m 
  298.31000p  182.2446n  699.9847m   24.4930u  699.9846m 
  298.32000p  182.2515n  699.9847m   24.4917u  699.9846m 
  298.33000p  182.2584n  699.9847m   24.4904u  699.9846m 
  298.34000p  182.2653n  699.9847m   24.4891u  699.9846m 
  298.35000p  182.2721n  699.9847m   24.4878u  699.9846m 
  298.36000p  182.2790n  699.9847m   24.4865u  699.9846m 
  298.37000p  182.2859n  699.9847m   24.4852u  699.9846m 
  298.38000p  182.2928n  699.9847m   24.4839u  699.9846m 
  298.39000p  182.2996n  699.9847m   24.4826u  699.9846m 
  298.40000p  182.3065n  699.9847m   24.4813u  699.9846m 
  298.41000p  182.3134n  699.9847m   24.4800u  699.9846m 
  298.42000p  182.3203n  699.9847m   24.4787u  699.9846m 
  298.43000p  182.3271n  699.9847m   24.4774u  699.9846m 
  298.44000p  182.3340n  699.9847m   24.4761u  699.9846m 
  298.45000p  182.3409n  699.9847m   24.4748u  699.9846m 
  298.46000p  182.3478n  699.9847m   24.4735u  699.9846m 
  298.47000p  182.3547n  699.9847m   24.4722u  699.9846m 
  298.48000p  182.3615n  699.9847m   24.4709u  699.9846m 
  298.49000p  182.3684n  699.9847m   24.4696u  699.9846m 
  298.50000p  182.3753n  699.9847m   24.4683u  699.9846m 
  298.51000p  182.3822n  699.9847m   24.4670u  699.9847m 
  298.52000p  182.3890n  699.9847m   24.4657u  699.9847m 
  298.53000p  182.3959n  699.9847m   24.4644u  699.9847m 
  298.54000p  182.4028n  699.9847m   24.4631u  699.9847m 
  298.55000p  182.4097n  699.9847m   24.4618u  699.9847m 
  298.56000p  182.4165n  699.9847m   24.4605u  699.9847m 
  298.57000p  182.4234n  699.9847m   24.4592u  699.9847m 
  298.58000p  182.4303n  699.9847m   24.4579u  699.9847m 
  298.59000p  182.4372n  699.9847m   24.4566u  699.9847m 
  298.60000p  182.4441n  699.9847m   24.4553u  699.9847m 
  298.61000p  182.4509n  699.9847m   24.4540u  699.9847m 
  298.62000p  182.4578n  699.9847m   24.4527u  699.9847m 
  298.63000p  182.4647n  699.9847m   24.4514u  699.9847m 
  298.64000p  182.4716n  699.9847m   24.4501u  699.9847m 
  298.65000p  182.4784n  699.9847m   24.4488u  699.9847m 
  298.66000p  182.4853n  699.9847m   24.4475u  699.9847m 
  298.67000p  182.4922n  699.9847m   24.4462u  699.9847m 
  298.68000p  182.4991n  699.9847m   24.4449u  699.9847m 
  298.69000p  182.5059n  699.9847m   24.4436u  699.9847m 
  298.70000p  182.5128n  699.9847m   24.4423u  699.9847m 
  298.71000p  182.5197n  699.9847m   24.4410u  699.9847m 
  298.72000p  182.5266n  699.9847m   24.4397u  699.9847m 
  298.73000p  182.5335n  699.9847m   24.4384u  699.9847m 
  298.74000p  182.5403n  699.9847m   24.4371u  699.9847m 
  298.75000p  182.5472n  699.9847m   24.4358u  699.9847m 
  298.76000p  182.5541n  699.9847m   24.4345u  699.9847m 
  298.77000p  182.5610n  699.9847m   24.4332u  699.9847m 
  298.78000p  182.5678n  699.9847m   24.4319u  699.9847m 
  298.79000p  182.5747n  699.9847m   24.4306u  699.9847m 
  298.80000p  182.5816n  699.9847m   24.4293u  699.9847m 
  298.81000p  182.5885n  699.9847m   24.4280u  699.9847m 
  298.82000p  182.5953n  699.9847m   24.4267u  699.9847m 
  298.83000p  182.6022n  699.9847m   24.4254u  699.9847m 
  298.84000p  182.6091n  699.9847m   24.4241u  699.9847m 
  298.85000p  182.6160n  699.9847m   24.4228u  699.9847m 
  298.86000p  182.6229n  699.9847m   24.4215u  699.9847m 
  298.87000p  182.6297n  699.9847m   24.4202u  699.9847m 
  298.88000p  182.6366n  699.9847m   24.4189u  699.9847m 
  298.89000p  182.6435n  699.9847m   24.4176u  699.9847m 
  298.90000p  182.6504n  699.9847m   24.4163u  699.9847m 
  298.91000p  182.6572n  699.9847m   24.4150u  699.9847m 
  298.92000p  182.6641n  699.9847m   24.4137u  699.9847m 
  298.93000p  182.6710n  699.9847m   24.4124u  699.9847m 
  298.94000p  182.6779n  699.9847m   24.4111u  699.9847m 
  298.95000p  182.6847n  699.9847m   24.4098u  699.9847m 
  298.96000p  182.6916n  699.9847m   24.4085u  699.9847m 
  298.97000p  182.6985n  699.9847m   24.4072u  699.9847m 
  298.98000p  182.7054n  699.9847m   24.4060u  699.9847m 
  298.99000p  182.7123n  699.9847m   24.4047u  699.9847m 
  299.00000p  182.7191n  699.9847m   24.4034u  699.9847m 
  299.01000p  182.7260n  699.9847m   24.4021u  699.9847m 
  299.02000p  182.7329n  699.9847m   24.4008u  699.9847m 
  299.03000p  182.7398n  699.9847m   24.3995u  699.9847m 
  299.04000p  182.7466n  699.9847m   24.3982u  699.9847m 
  299.05000p  182.7535n  699.9847m   24.3969u  699.9847m 
  299.06000p  182.7604n  699.9847m   24.3956u  699.9847m 
  299.07000p  182.7673n  699.9847m   24.3943u  699.9847m 
  299.08000p  182.7741n  699.9847m   24.3930u  699.9847m 
  299.09000p  182.7810n  699.9847m   24.3917u  699.9847m 
  299.10000p  182.7879n  699.9847m   24.3904u  699.9847m 
  299.11000p  182.7948n  699.9847m   24.3891u  699.9847m 
  299.12000p  182.8017n  699.9847m   24.3878u  699.9847m 
  299.13000p  182.8085n  699.9847m   24.3865u  699.9847m 
  299.14000p  182.8154n  699.9847m   24.3852u  699.9847m 
  299.15000p  182.8223n  699.9847m   24.3839u  699.9847m 
  299.16000p  182.8292n  699.9847m   24.3826u  699.9847m 
  299.17000p  182.8360n  699.9847m   24.3813u  699.9847m 
  299.18000p  182.8429n  699.9847m   24.3800u  699.9847m 
  299.19000p  182.8498n  699.9847m   24.3787u  699.9847m 
  299.20000p  182.8567n  699.9847m   24.3774u  699.9847m 
  299.21000p  182.8635n  699.9847m   24.3761u  699.9847m 
  299.22000p  182.8704n  699.9847m   24.3748u  699.9847m 
  299.23000p  182.8773n  699.9847m   24.3735u  699.9847m 
  299.24000p  182.8842n  699.9847m   24.3722u  699.9847m 
  299.25000p  182.8911n  699.9847m   24.3709u  699.9847m 
  299.26000p  182.8979n  699.9847m   24.3696u  699.9847m 
  299.27000p  182.9048n  699.9847m   24.3683u  699.9847m 
  299.28000p  182.9117n  699.9847m   24.3670u  699.9847m 
  299.29000p  182.9186n  699.9847m   24.3657u  699.9847m 
  299.30000p  182.9254n  699.9847m   24.3644u  699.9847m 
  299.31000p  182.9323n  699.9847m   24.3631u  699.9847m 
  299.32000p  182.9392n  699.9847m   24.3618u  699.9847m 
  299.33000p  182.9461n  699.9847m   24.3605u  699.9847m 
  299.34000p  182.9529n  699.9847m   24.3592u  699.9847m 
  299.35000p  182.9598n  699.9847m   24.3579u  699.9847m 
  299.36000p  182.9667n  699.9847m   24.3566u  699.9847m 
  299.37000p  182.9736n  699.9847m   24.3553u  699.9847m 
  299.38000p  182.9805n  699.9847m   24.3540u  699.9847m 
  299.39000p  182.9873n  699.9847m   24.3527u  699.9847m 
  299.40000p  182.9942n  699.9847m   24.3514u  699.9847m 
  299.41000p  183.0011n  699.9847m   24.3501u  699.9847m 
  299.42000p  183.0080n  699.9847m   24.3488u  699.9847m 
  299.43000p  183.0148n  699.9847m   24.3475u  699.9847m 
  299.44000p  183.0217n  699.9847m   24.3462u  699.9847m 
  299.45000p  183.0286n  699.9847m   24.3449u  699.9847m 
  299.46000p  183.0355n  699.9847m   24.3436u  699.9847m 
  299.47000p  183.0423n  699.9847m   24.3423u  699.9847m 
  299.48000p  183.0492n  699.9848m   24.3410u  699.9847m 
  299.49000p  183.0561n  699.9848m   24.3397u  699.9847m 
  299.50000p  183.0630n  699.9848m   24.3384u  699.9847m 
  299.51000p  183.0699n  699.9848m   24.3371u  699.9847m 
  299.52000p  183.0767n  699.9848m   24.3358u  699.9847m 
  299.53000p  183.0836n  699.9848m   24.3345u  699.9847m 
  299.54000p  183.0905n  699.9848m   24.3332u  699.9847m 
  299.55000p  183.0974n  699.9848m   24.3319u  699.9847m 
  299.56000p  183.1042n  699.9848m   24.3306u  699.9847m 
  299.57000p  183.1111n  699.9848m   24.3293u  699.9847m 
  299.58000p  183.1180n  699.9848m   24.3280u  699.9847m 
  299.59000p  183.1249n  699.9848m   24.3267u  699.9847m 
  299.60000p  183.1317n  699.9848m   24.3254u  699.9847m 
  299.61000p  183.1386n  699.9848m   24.3241u  699.9847m 
  299.62000p  183.1455n  699.9848m   24.3228u  699.9847m 
  299.63000p  183.1524n  699.9848m   24.3215u  699.9847m 
  299.64000p  183.1593n  699.9848m   24.3202u  699.9847m 
  299.65000p  183.1661n  699.9848m   24.3189u  699.9847m 
  299.66000p  183.1730n  699.9848m   24.3176u  699.9847m 
  299.67000p  183.1799n  699.9848m   24.3163u  699.9847m 
  299.68000p  183.1868n  699.9848m   24.3150u  699.9847m 
  299.69000p  183.1936n  699.9848m   24.3137u  699.9847m 
  299.70000p  183.2005n  699.9848m   24.3124u  699.9847m 
  299.71000p  183.2074n  699.9848m   24.3111u  699.9847m 
  299.72000p  183.2143n  699.9848m   24.3098u  699.9847m 
  299.73000p  183.2211n  699.9848m   24.3085u  699.9847m 
  299.74000p  183.2280n  699.9848m   24.3072u  699.9847m 
  299.75000p  183.2349n  699.9848m   24.3059u  699.9848m 
  299.76000p  183.2418n  699.9848m   24.3046u  699.9848m 
  299.77000p  183.2487n  699.9848m   24.3033u  699.9848m 
  299.78000p  183.2555n  699.9848m   24.3020u  699.9848m 
  299.79000p  183.2624n  699.9848m   24.3007u  699.9848m 
  299.80000p  183.2693n  699.9848m   24.2994u  699.9848m 
  299.81000p  183.2762n  699.9848m   24.2981u  699.9848m 
  299.82000p  183.2830n  699.9848m   24.2968u  699.9848m 
  299.83000p  183.2899n  699.9848m   24.2955u  699.9848m 
  299.84000p  183.2968n  699.9848m   24.2943u  699.9848m 
  299.85000p  183.3037n  699.9848m   24.2930u  699.9848m 
  299.86000p  183.3105n  699.9848m   24.2917u  699.9848m 
  299.87000p  183.3174n  699.9848m   24.2904u  699.9848m 
  299.88000p  183.3243n  699.9848m   24.2891u  699.9848m 
  299.89000p  183.3312n  699.9848m   24.2878u  699.9848m 
  299.90000p  183.3381n  699.9848m   24.2865u  699.9848m 
  299.91000p  183.3449n  699.9848m   24.2852u  699.9848m 
  299.92000p  183.3518n  699.9848m   24.2839u  699.9848m 
  299.93000p  183.3587n  699.9848m   24.2826u  699.9848m 
  299.94000p  183.3656n  699.9848m   24.2813u  699.9848m 
  299.95000p  183.3724n  699.9848m   24.2800u  699.9848m 
  299.96000p  183.3793n  699.9848m   24.2787u  699.9848m 
  299.97000p  183.3862n  699.9848m   24.2774u  699.9848m 
  299.98000p  183.3931n  699.9848m   24.2761u  699.9848m 
  299.99000p  183.3999n  699.9848m   24.2748u  699.9848m 
  300.00000p  183.4068n  699.9848m   24.2735u  699.9848m 
y

          ***** job concluded
 ******  
 * m. saeed abrishami

 ****** job statistics summary tnom=  25.000 temp=  25.000 ******
  
 ******  Machine Information  ******
 CPU:
 model name	: Intel(R) Xeon(R) CPU E7- 8837  @ 2.67GHz
 cpu MHz	: 2663.658
  
 OS:
 Linux version 3.16.0-7-amd64 (debian-kernel@lists.debian.org) (gcc version 4.9.2 (Debian 4.9.2-10+deb8u1) ) #1 SMP Debian 3.16.59-1 (2018-10-03)


  ******  HSPICE Threads Information  ******

  Command Line Threads Count :     1
  Available CPU Count        :    32
  Actual Threads Count       :     1


  ******  Circuit Statistics  ******
  # nodes       =     116 # elements   =      58
  # resistors   =       0 # capacitors =       9 # inductors   =       0
  # mutual_inds =       0 # vccs       =       0 # vcvs        =       0
  # cccs        =       0 # ccvs       =       0 # volt_srcs   =       5
  # curr_srcs   =       0 # diodes     =       0 # bjts        =       0
  # jfets       =       0 # mosfets    =      44 # U elements  =       0
  # T elements  =       0 # W elements =       0 # B elements  =       0
  # S elements  =       0 # P elements =       0 # va device   =       0
  # vector_srcs =       0 # N elements =       0


  ******  Runtime Statistics (seconds)  ******

  analysis           time    # points   tot. iter  conv.iter
  op point           0.02           1           4
  transient          0.43       30001         297          86 rev=        10
  readin             0.04
  errchk             0.01
  setup              0.01
  output             0.00


           peak memory used        312.75 megabytes
           total cpu time            1.19 seconds
           total elapsed time        0.69 seconds
           job started at     14:34:25 02/04/2020
           job ended   at     14:34:26 02/04/2020



>info:         ***** hspice job concluded
 lic: Release hspice token(s) 
 lic: total license checkout elapse time:        0.06(s)
