Using: /opt/synopsys/hspice/O-2018.09-SP2-2/hspice/linux64/hspice c17.sp
 ****** HSPICE -- O-2018.09-SP2-2 linux64 (May  9 2019) ******                  
  Copyright (c) 1986 - 2020 by Synopsys, Inc. All Rights Reserved.              
  This software and the associated documentation are proprietary
  to Synopsys, Inc. This software may only be used in accordance
  with the terms and conditions of a written license agreement with
  Synopsys, Inc. All other use, reproduction, or distribution of
  this software is strictly prohibited.
  Input File: c17.sp                                                            
  Command line options: /opt/synopsys/hspice/O-2018.09-SP2-2/hspice/linux64/hspice c17.sp
  Start time: Thu May  7 16:52:57 2020
 lic:  
 lic: FLEXlm: SDK_11.7.3 
 lic: USER:   mitsushij            HOSTNAME: sahand 
 lic: HOSTID: "80c16e72eecb"       PID:      66194 
 lic: Using FLEXlm license file: 
 lic: 1720@ics-lic2.usc.edu 
 lic: Checkout 1 hspice 
 lic: License/Maintenance for hspice will expire on 30-jun-2021/2019.06 
 lic: 1(in_use)/50(total) FLOATING license(s) on SERVER 1720@ics-lic2.usc.edu 
 lic:   
  **warning** (/home/home2/visiting/mitsushij/workspace/CSM/simulation/../data/modelfiles/PTM_MG/lstp/7nm_LSTP.pm:13) Model nfet device geometries will not be checked against the limits set by lmin, lmax, nfinmin and nfinmax. To enable this check, add a period(.) to the model name(i.e. enable model selector).
1****** HSPICE -- O-2018.09-SP2-2 linux64 (May  9 2019) ******                  
 ******  
 * eda yan

 ****** circuit name directory
 circuit number to circuit name directory
   number circuitname                     definition         multiplier
        0 main circuit
        1 xnand2_1.                       nand2              1.00 
        2 xnand2_2.                       nand2              1.00 
        3 xnand2_3.                       nand2              1.00 
        4 xnand2_4.                       nand2              1.00 
        5 xnand2_5.                       nand2              1.00 
        6 xnand2_6.                       nand2              1.00 
  **info** (c17.sp:28) DC voltage reset to initial transient source value in source 0:vn7. new dc=0.0000D+00
  
  **warning**  the following singular supplies have a terminal that is not connected to any other element
 supply                 node1                  node2
 vlo                 0:lo               defined in subckt 0            0:0                defined in subckt 0
  
      

Element variations(Local):   element              parameter
 **info** set option symb=1 internally to help for convergence.
 *****************************************************************
 ******  option summary
 ******
 runlvl  = 3         bypass  = 2.0000    
 ******  
 * eda yan

 ****** operating point information tnom=  25.000 temp=  25.000 ******
 ****** operating point status is all       simulation time is     0.     
    node    =voltage      node    =voltage      node    =voltage

 +0:hi      = 700.0000m 0:lo      =   0.      0:n1      = 700.0000m
 +0:n10     = 126.2515n 0:n11     = 699.9999m 0:n16     = 699.9999m
 +0:n19     = 699.9999m 0:n2      =   0.      0:n22     = 700.0000m
 +0:n23     = 126.1730n 0:n3      = 700.0000m 0:n6      =   0.     
 +0:n7      =   0.      1:n1      =  82.2154n 2:n1      = 649.8246m
 +3:n1      =  31.6057n 4:n1      = 649.8246m 5:n1      =  31.6058n
 +6:n1      =  82.1762n


 **** voltage sources

 subckt                                                                    
 element  0:vhi      0:vlo      0:vn1      0:vn2      0:vn3      0:vn6     
  volts    700.0000m    0.       700.0000m    0.       700.0000m    0.     
  current  -75.5244p    0.       -11.5350p   11.8654f  -11.5350p   11.8654f
  power     52.8671p    0.         8.0745p    0.         8.0745p    0.     

 subckt             
 element  0:vn7     
  volts      0.     
  current   11.8654f
  power      0.     

     total voltage source power dissipation=   69.0161p       watts




 **** mosfets


 subckt   xnand2_1   xnand2_1   xnand2_1   xnand2_1   xnand2_2   xnand2_2  
 element  1:mp2      1:mp1      1:mn1      1:mn2      2:mp2      2:mp1     
 model    0:pfet     0:pfet     0:nfet     0:nfet     0:pfet     0:pfet    
 region   Cutoff     Cutoff     Linear     Linear     Linear     Cutoff    
  id        -3.7618p   -3.7618p   13.3044p   24.8394p  -14.9022p   -2.1298a
  ibs        0.         0.         0.         0.         0.         0.     
  ibd        0.         0.         0.         0.         0.         0.     
  vgs        0.         0.       699.9999m  700.0000m -700.0000m    0.     
  vds     -699.9999m -699.9999m   44.0361n   82.2154n  -63.0434n  -63.0434n
  vbs        0.         0.       -82.2154n    0.         0.         0.     
  vth     -540.7451m -540.7451m  563.5226m  563.5226m -561.0439m -561.0439m
  vdsat    -19.0834m  -19.0834m   20.8763m   20.8763m  -29.3817m  -19.0834m
  vod      540.7451m  540.7451m  136.4773m  136.4774m -138.9561m  561.0439m
  beta       8.5851m    8.5851m   13.9507m   13.9507m    8.5851m    8.5851m
  gam eff    0.         0.         0.         0.         0.         0.     
  gm       119.6779p  119.6779p   64.1124p  119.6979p   75.3758p   69.3200a
  gds        9.9696p    9.9696p    1.6990m    1.6990m    1.0931m   33.6356p
  gmb        0.         0.         0.         0.         0.         0.     
  cdtot     12.4449a   12.4449a   16.9858a   16.9858a   17.0008a   12.4449a
  cgtot     24.8898a   24.8898a   38.5125a   38.5125a   38.5574a   24.8898a
  cstot     12.4449a   12.4449a   16.9858a   16.9858a   17.0008a   12.4449a
  cbtot      0.         0.         0.         0.         0.         0.     
  cgs       12.4449a   12.4449a   19.2562a   19.2562a   19.2787a   12.4449a
  cgd       12.4449a   12.4449a   19.2562a   19.2562a   19.2787a   12.4449a



 subckt   xnand2_2   xnand2_2   xnand2_3   xnand2_3   xnand2_3   xnand2_3  
 element  2:mn1      2:mn2      3:mp2      3:mp1      3:mn1      3:mn2     
 model    0:nfet     0:nfet     0:pfet     0:pfet     0:nfet     0:nfet    
 region   Cutoff     Cutoff     Cutoff     Linear     Cutoff     Linear    
  id         3.3605p    3.3592p   -3.8219a  -26.8580p    3.7814p    9.5489p
  ibs        0.         0.         0.         0.         0.         0.     
  ibd        0.         0.         0.         0.         0.         0.     
  vgs       50.1754m    0.       -63.0434n -700.0000m  -31.6057n  699.9999m
  vds       50.1753m  649.8246m -113.6224n -113.6224n  699.9999m   31.6057n
  vbs     -649.8246m    0.         0.         0.       -31.6057n    0.     
  vth      563.2357m  550.0609m -561.0439m -561.0439m  548.8624m  563.5226m
  vdsat     14.7090m   14.7090m  -19.0834m  -29.3817m   14.7090m   20.8763m
  vod     -513.0603m -550.0609m  561.0438m -138.9561m -548.8625m  136.4773m
  beta      13.9507m   13.9507m    8.5851m    8.5851m   13.9507m   13.9507m
  gam eff    0.         0.         0.         0.         0.         0.     
  gm       109.7288p  107.0988p  124.8986a  135.8490p  120.3007p   46.0149p
  gds       11.3830p    7.9930p   33.6356p    1.0931m    8.8487p    1.6990m
  gmb        0.         0.         0.         0.         0.         0.     
  cdtot     12.4449a   12.4449a   12.4449a   17.0008a   12.4449a   16.9858a
  cgtot     24.8898a   24.8898a   24.8898a   38.5574a   24.8898a   38.5125a
  cstot     12.4449a   12.4449a   12.4449a   17.0008a   12.4449a   16.9858a
  cbtot      0.         0.         0.         0.         0.         0.     
  cgs       12.4449a   12.4449a   12.4449a   19.2787a   12.4449a   19.2562a
  cgd       12.4449a   12.4449a   12.4449a   19.2787a   12.4449a   19.2562a



 subckt   xnand2_4   xnand2_4   xnand2_4   xnand2_4   xnand2_5   xnand2_5  
 element  4:mp2      4:mp1      4:mn1      4:mn2      5:mp2      5:mp1     
 model    0:pfet     0:pfet     0:nfet     0:nfet     0:pfet     0:pfet    
 region   Linear     Cutoff     Cutoff     Cutoff     Cutoff     Linear    
  id       -14.9022p   -2.1006a    3.3605p    3.3592p -4.960e-19   -3.7881p
  ibs        0.         0.         0.         0.         0.         0.     
  ibd        0.         0.         0.         0.         0.         0.     
  vgs     -700.0000m  -63.0434n   50.1754m    0.      -113.6224n -699.9999m
  vds      -63.0433n  -63.0433n   50.1754m  649.8246m  -16.0253n  -16.0253n
  vbs        0.         0.      -649.8246m    0.         0.         0.     
  vth     -561.0439m -561.0439m  563.2357m  550.0609m -561.0439m -561.0439m
  vdsat    -29.3817m  -19.0834m   14.7090m   14.7090m  -19.0834m  -29.3817m
  vod     -138.9561m  561.0438m -513.0603m -550.0609m  561.0438m -138.9560m
  beta       8.5851m    8.5851m   13.9507m   13.9507m    8.5851m    8.5851m
  gam eff    0.         0.         0.         0.         0.         0.     
  gm        75.3757p   69.3784a  109.7288p  107.0988p   17.5634a   19.1602p
  gds        1.0931m   33.6356p   11.3830p    7.9930p   33.6357p    1.0931m
  gmb        0.         0.         0.         0.         0.         0.     
  cdtot     17.0008a   12.4449a   12.4449a   12.4449a   12.4449a   17.0008a
  cgtot     38.5574a   24.8898a   24.8898a   24.8898a   24.8898a   38.5574a
  cstot     17.0008a   12.4449a   12.4449a   12.4449a   12.4449a   17.0008a
  cbtot      0.         0.         0.         0.         0.         0.     
  cgs       19.2787a   12.4449a   12.4449a   12.4449a   12.4449a   19.2787a
  cgd       19.2787a   12.4449a   12.4449a   12.4449a   12.4449a   19.2787a



 subckt   xnand2_5   xnand2_5   xnand2_6   xnand2_6   xnand2_6   xnand2_6  
 element  5:mn1      5:mn2      6:mp2      6:mp1      6:mn1      6:mn2     
 model    0:nfet     0:nfet     0:pfet     0:pfet     0:nfet     0:nfet    
 region   Cutoff     Linear     Cutoff     Cutoff     Linear     Linear    
  id         3.7814p    9.5489p   -3.7619p   -3.7619p   13.2926p   24.8276p
  ibs        0.         0.         0.         0.         0.         0.     
  ibd        0.         0.         0.         0.         0.         0.     
  vgs       94.6457n  699.9999m  -63.0433n -113.6224n  699.9998m  699.9999m
  vds      700.0000m   31.6058n -699.9999m -699.9999m   43.9968n   82.1762n
  vbs      -31.6058n    0.         0.         0.       -82.1762n    0.     
  vth      548.8624m  563.5226m -540.7451m -540.7451m  563.5226m  563.5226m
  vdsat     14.7090m   20.8763m  -19.0834m  -19.0834m   20.8763m   20.8763m
  vod     -548.8623m  136.4773m  540.7451m  540.7450m  136.4772m  136.4773m
  beta      13.9507m   13.9507m    8.5851m    8.5851m   13.9507m   13.9507m
  gam eff    0.         0.         0.         0.         0.         0.     
  gm       120.3012p   46.0150p  119.6782p  119.6784p   64.0553p  119.6408p
  gds        8.8487p    1.6990m    9.9696p    9.9696p    1.6990m    1.6990m
  gmb        0.         0.         0.         0.         0.         0.     
  cdtot     12.4449a   16.9858a   12.4449a   12.4449a   16.9858a   16.9858a
  cgtot     24.8898a   38.5125a   24.8898a   24.8898a   38.5125a   38.5125a
  cstot     12.4449a   16.9858a   12.4449a   12.4449a   16.9858a   16.9858a
  cbtot      0.         0.         0.         0.         0.         0.     
  cgs       12.4449a   19.2562a   12.4449a   12.4449a   19.2562a   19.2562a
  cgd       12.4449a   19.2562a   12.4449a   12.4449a   19.2562a   19.2562a



 ******
 * eda yan

 ****** transient analysis tnom=  25.000 temp=  25.000 ******
x

 time         voltage    voltage   
             n22        n23        
    0.        700.0000m  126.1730n 
   10.00000f  700.0000m  126.1730n 
   20.00000f  700.0000m  126.1730n 
   30.00000f  700.0000m  126.1730n 
   40.00000f  700.0000m  126.1730n 
   50.00000f  700.0000m  126.1730n 
   60.00000f  700.0000m  126.1730n 
   70.00000f  700.0000m  126.1730n 
   80.00000f  700.0000m  126.1730n 
   90.00000f  700.0000m  126.1730n 
  100.00000f  700.0000m  126.1730n 
  110.00000f  700.0000m  126.1730n 
  120.00000f  700.0000m  126.1730n 
  130.00000f  700.0000m  126.1730n 
  140.00000f  700.0000m  126.1730n 
  150.00000f  700.0000m  126.1730n 
  160.00000f  700.0000m  126.1730n 
  170.00000f  700.0000m  126.1730n 
  180.00000f  700.0000m  126.1730n 
  190.00000f  700.0000m  126.1730n 
  200.00000f  700.0000m  126.1730n 
  210.00000f  700.0000m  126.1730n 
  220.00000f  700.0000m  126.1730n 
  230.00000f  700.0000m  126.1730n 
  240.00000f  700.0000m  126.1730n 
  250.00000f  700.0000m  126.1730n 
  260.00000f  700.0000m  126.1730n 
  270.00000f  700.0000m  126.1730n 
  280.00000f  700.0000m  126.1730n 
  290.00000f  700.0000m  126.1730n 
  300.00000f  700.0000m  126.1730n 
  310.00000f  700.0000m  126.1730n 
  320.00000f  700.0000m  126.1730n 
  330.00000f  700.0000m  126.1730n 
  340.00000f  700.0000m  126.1730n 
  350.00000f  700.0000m  126.1730n 
  360.00000f  700.0000m  126.1730n 
  370.00000f  700.0000m  126.1730n 
  380.00000f  700.0000m  126.1730n 
  390.00000f  700.0000m  126.1730n 
  400.00000f  700.0000m  126.1730n 
  410.00000f  700.0000m  126.1730n 
  420.00000f  700.0000m  126.1730n 
  430.00000f  700.0000m  126.1730n 
  440.00000f  700.0000m  126.1730n 
  450.00000f  700.0000m  126.1730n 
  460.00000f  700.0000m  126.1730n 
  470.00000f  700.0000m  126.1730n 
  480.00000f  700.0000m  126.1730n 
  490.00000f  700.0000m  126.1730n 
  500.00000f  700.0000m  126.1730n 
  510.00000f  700.0000m  126.1730n 
  520.00000f  700.0000m  126.1730n 
  530.00000f  700.0000m  126.1730n 
  540.00000f  700.0000m  126.1730n 
  550.00000f  700.0000m  126.1730n 
  560.00000f  700.0000m  126.1730n 
  570.00000f  700.0000m  126.1730n 
  580.00000f  700.0000m  126.1730n 
  590.00000f  700.0000m  126.1730n 
  600.00000f  700.0000m  126.1730n 
  610.00000f  700.0000m  126.1730n 
  620.00000f  700.0000m  126.1730n 
  630.00000f  700.0000m  126.1730n 
  640.00000f  700.0000m  126.1730n 
  650.00000f  700.0000m  126.1730n 
  660.00000f  700.0000m  126.1730n 
  670.00000f  700.0000m  126.1730n 
  680.00000f  700.0000m  126.1730n 
  690.00000f  700.0000m  126.1730n 
  700.00000f  700.0000m  126.1730n 
  710.00000f  700.0000m  126.1730n 
  720.00000f  700.0000m  126.1730n 
  730.00000f  700.0000m  126.1730n 
  740.00000f  700.0000m  126.1730n 
  750.00000f  700.0000m  126.1730n 
  760.00000f  700.0000m  126.1730n 
  770.00000f  700.0000m  126.1730n 
  780.00000f  700.0000m  126.1730n 
  790.00000f  700.0000m  126.1730n 
  800.00000f  700.0000m  126.1730n 
  810.00000f  700.0000m  126.1730n 
  820.00000f  700.0000m  126.1730n 
  830.00000f  700.0000m  126.1730n 
  840.00000f  700.0000m  126.1730n 
  850.00000f  700.0000m  126.1730n 
  860.00000f  700.0000m  126.1730n 
  870.00000f  700.0000m  126.1730n 
  880.00000f  700.0000m  126.1730n 
  890.00000f  700.0000m  126.1730n 
  900.00000f  700.0000m  126.1730n 
  910.00000f  700.0000m  126.1730n 
  920.00000f  700.0000m  126.1730n 
  930.00000f  700.0000m  126.1730n 
  940.00000f  700.0000m  126.1730n 
  950.00000f  700.0000m  126.1730n 
  960.00000f  700.0000m  126.1730n 
  970.00000f  700.0000m  126.1730n 
  980.00000f  700.0000m  126.1730n 
  990.00000f  700.0000m  126.1730n 
    1.00000p  700.0000m  126.1730n 
    1.01000p  700.0000m  126.1730n 
    1.02000p  700.0000m  126.1730n 
    1.03000p  700.0000m  126.1730n 
    1.04000p  700.0000m  126.1730n 
    1.05000p  700.0000m  126.1730n 
    1.06000p  700.0000m  126.1730n 
    1.07000p  700.0000m  126.1730n 
    1.08000p  700.0000m  126.1730n 
    1.09000p  700.0000m  126.1730n 
    1.10000p  700.0000m  126.1730n 
    1.11000p  700.0000m  126.1730n 
    1.12000p  700.0000m  126.1730n 
    1.13000p  700.0000m  126.1730n 
    1.14000p  700.0000m  126.1730n 
    1.15000p  700.0000m  126.1730n 
    1.16000p  700.0000m  126.1730n 
    1.17000p  700.0000m  126.1730n 
    1.18000p  700.0000m  126.1730n 
    1.19000p  700.0000m  126.1730n 
    1.20000p  700.0000m  126.1730n 
    1.21000p  700.0000m  126.1730n 
    1.22000p  700.0000m  126.1730n 
    1.23000p  700.0000m  126.1730n 
    1.24000p  700.0000m  126.1730n 
    1.25000p  700.0000m  126.1730n 
    1.26000p  700.0000m  126.1730n 
    1.27000p  700.0000m  126.1730n 
    1.28000p  700.0000m  126.1730n 
    1.29000p  700.0000m  126.1730n 
    1.30000p  700.0000m  126.1730n 
    1.31000p  700.0000m  126.1730n 
    1.32000p  700.0000m  126.1730n 
    1.33000p  700.0000m  126.1730n 
    1.34000p  700.0000m  126.1730n 
    1.35000p  700.0000m  126.1730n 
    1.36000p  700.0000m  126.1730n 
    1.37000p  700.0000m  126.1730n 
    1.38000p  700.0000m  126.1730n 
    1.39000p  700.0000m  126.1730n 
    1.40000p  700.0000m  126.1730n 
    1.41000p  700.0000m  126.1730n 
    1.42000p  700.0000m  126.1730n 
    1.43000p  700.0000m  126.1730n 
    1.44000p  700.0000m  126.1730n 
    1.45000p  700.0000m  126.1730n 
    1.46000p  700.0000m  126.1730n 
    1.47000p  700.0000m  126.1730n 
    1.48000p  700.0000m  126.1730n 
    1.49000p  700.0000m  126.1730n 
    1.50000p  700.0000m  126.1730n 
    1.51000p  700.0000m  126.1730n 
    1.52000p  700.0000m  126.1730n 
    1.53000p  700.0000m  126.1730n 
    1.54000p  700.0000m  126.1730n 
    1.55000p  700.0000m  126.1730n 
    1.56000p  700.0000m  126.1730n 
    1.57000p  700.0000m  126.1730n 
    1.58000p  700.0000m  126.1730n 
    1.59000p  700.0000m  126.1730n 
    1.60000p  700.0000m  126.1730n 
    1.61000p  700.0000m  126.1730n 
    1.62000p  700.0000m  126.1730n 
    1.63000p  700.0000m  126.1730n 
    1.64000p  700.0000m  126.1730n 
    1.65000p  700.0000m  126.1730n 
    1.66000p  700.0000m  126.1730n 
    1.67000p  700.0000m  126.1730n 
    1.68000p  700.0000m  126.1730n 
    1.69000p  700.0000m  126.1730n 
    1.70000p  700.0000m  126.1730n 
    1.71000p  700.0000m  126.1730n 
    1.72000p  700.0000m  126.1730n 
    1.73000p  700.0000m  126.1730n 
    1.74000p  700.0000m  126.1730n 
    1.75000p  700.0000m  126.1730n 
    1.76000p  700.0000m  126.1730n 
    1.77000p  700.0000m  126.1730n 
    1.78000p  700.0000m  126.1730n 
    1.79000p  700.0000m  126.1730n 
    1.80000p  700.0000m  126.1730n 
    1.81000p  700.0000m  126.1730n 
    1.82000p  700.0000m  126.1730n 
    1.83000p  700.0000m  126.1730n 
    1.84000p  700.0000m  126.1730n 
    1.85000p  700.0000m  126.1730n 
    1.86000p  700.0000m  126.1730n 
    1.87000p  700.0000m  126.1730n 
    1.88000p  700.0000m  126.1730n 
    1.89000p  700.0000m  126.1730n 
    1.90000p  700.0000m  126.1730n 
    1.91000p  700.0000m  126.1730n 
    1.92000p  700.0000m  126.1730n 
    1.93000p  700.0000m  126.1730n 
    1.94000p  700.0000m  126.1730n 
    1.95000p  700.0000m  126.1730n 
    1.96000p  700.0000m  126.1730n 
    1.97000p  700.0000m  126.1730n 
    1.98000p  700.0000m  126.1730n 
    1.99000p  700.0000m  126.1730n 
    2.00000p  700.0000m  126.1730n 
    2.01000p  700.0000m  126.1730n 
    2.02000p  700.0000m  126.1730n 
    2.03000p  700.0000m  126.1730n 
    2.04000p  700.0000m  126.1730n 
    2.05000p  700.0000m  126.1730n 
    2.06000p  700.0000m  126.1730n 
    2.07000p  700.0000m  126.1730n 
    2.08000p  700.0000m  126.1730n 
    2.09000p  700.0000m  126.1730n 
    2.10000p  700.0000m  126.1730n 
    2.11000p  700.0000m  126.1730n 
    2.12000p  700.0000m  126.1730n 
    2.13000p  700.0000m  126.1730n 
    2.14000p  700.0000m  126.1730n 
    2.15000p  700.0000m  126.1730n 
    2.16000p  700.0000m  126.1730n 
    2.17000p  700.0000m  126.1730n 
    2.18000p  700.0000m  126.1730n 
    2.19000p  700.0000m  126.1730n 
    2.20000p  700.0000m  126.1730n 
    2.21000p  700.0000m  126.1730n 
    2.22000p  700.0000m  126.1730n 
    2.23000p  700.0000m  126.1730n 
    2.24000p  700.0000m  126.1730n 
    2.25000p  700.0000m  126.1730n 
    2.26000p  700.0000m  126.1730n 
    2.27000p  700.0000m  126.1730n 
    2.28000p  700.0000m  126.1730n 
    2.29000p  700.0000m  126.1730n 
    2.30000p  700.0000m  126.1730n 
    2.31000p  700.0000m  126.1730n 
    2.32000p  700.0000m  126.1730n 
    2.33000p  700.0000m  126.1730n 
    2.34000p  700.0000m  126.1730n 
    2.35000p  700.0000m  126.1730n 
    2.36000p  700.0000m  126.1730n 
    2.37000p  700.0000m  126.1730n 
    2.38000p  700.0000m  126.1730n 
    2.39000p  700.0000m  126.1730n 
    2.40000p  700.0000m  126.1730n 
    2.41000p  700.0000m  126.1730n 
    2.42000p  700.0000m  126.1730n 
    2.43000p  700.0000m  126.1730n 
    2.44000p  700.0000m  126.1730n 
    2.45000p  700.0000m  126.1730n 
    2.46000p  700.0000m  126.1730n 
    2.47000p  700.0000m  126.1730n 
    2.48000p  700.0000m  126.1730n 
    2.49000p  700.0000m  126.1730n 
    2.50000p  700.0000m  126.1730n 
    2.51000p  700.0000m  126.1730n 
    2.52000p  700.0000m  126.1730n 
    2.53000p  700.0000m  126.1730n 
    2.54000p  700.0000m  126.1730n 
    2.55000p  700.0000m  126.1730n 
    2.56000p  700.0000m  126.1730n 
    2.57000p  700.0000m  126.1730n 
    2.58000p  700.0000m  126.1730n 
    2.59000p  700.0000m  126.1730n 
    2.60000p  700.0000m  126.1730n 
    2.61000p  700.0000m  126.1730n 
    2.62000p  700.0000m  126.1730n 
    2.63000p  700.0000m  126.1730n 
    2.64000p  700.0000m  126.1730n 
    2.65000p  700.0000m  126.1730n 
    2.66000p  700.0000m  126.1730n 
    2.67000p  700.0000m  126.1730n 
    2.68000p  700.0000m  126.1730n 
    2.69000p  700.0000m  126.1730n 
    2.70000p  700.0000m  126.1730n 
    2.71000p  700.0000m  126.1730n 
    2.72000p  700.0000m  126.1730n 
    2.73000p  700.0000m  126.1730n 
    2.74000p  700.0000m  126.1730n 
    2.75000p  700.0000m  126.1730n 
    2.76000p  700.0000m  126.1730n 
    2.77000p  700.0000m  126.1730n 
    2.78000p  700.0000m  126.1730n 
    2.79000p  700.0000m  126.1730n 
    2.80000p  700.0000m  126.1730n 
    2.81000p  700.0000m  126.1730n 
    2.82000p  700.0000m  126.1730n 
    2.83000p  700.0000m  126.1730n 
    2.84000p  700.0000m  126.1730n 
    2.85000p  700.0000m  126.1730n 
    2.86000p  700.0000m  126.1730n 
    2.87000p  700.0000m  126.1730n 
    2.88000p  700.0000m  126.1730n 
    2.89000p  700.0000m  126.1730n 
    2.90000p  700.0000m  126.1730n 
    2.91000p  700.0000m  126.1730n 
    2.92000p  700.0000m  126.1730n 
    2.93000p  700.0000m  126.1730n 
    2.94000p  700.0000m  126.1730n 
    2.95000p  700.0000m  126.1730n 
    2.96000p  700.0000m  126.1730n 
    2.97000p  700.0000m  126.1730n 
    2.98000p  700.0000m  126.1730n 
    2.99000p  700.0000m  126.1730n 
    3.00000p  700.0000m  126.1730n 
    3.01000p  700.0000m  126.1730n 
    3.02000p  700.0000m  126.1730n 
    3.03000p  700.0000m  126.1730n 
    3.04000p  700.0000m  126.1730n 
    3.05000p  700.0000m  126.1730n 
    3.06000p  700.0000m  126.1730n 
    3.07000p  700.0000m  126.1730n 
    3.08000p  700.0000m  126.1730n 
    3.09000p  700.0000m  126.1730n 
    3.10000p  700.0000m  126.1730n 
    3.11000p  700.0000m  126.1730n 
    3.12000p  700.0000m  126.1730n 
    3.13000p  700.0000m  126.1730n 
    3.14000p  700.0000m  126.1730n 
    3.15000p  700.0000m  126.1730n 
    3.16000p  700.0000m  126.1730n 
    3.17000p  700.0000m  126.1730n 
    3.18000p  700.0000m  126.1730n 
    3.19000p  700.0000m  126.1730n 
    3.20000p  700.0000m  126.1730n 
    3.21000p  700.0000m  126.1730n 
    3.22000p  700.0000m  126.1730n 
    3.23000p  700.0000m  126.1730n 
    3.24000p  700.0000m  126.1730n 
    3.25000p  700.0000m  126.1730n 
    3.26000p  700.0000m  126.1730n 
    3.27000p  700.0000m  126.1730n 
    3.28000p  700.0000m  126.1730n 
    3.29000p  700.0000m  126.1730n 
    3.30000p  700.0000m  126.1730n 
    3.31000p  700.0000m  126.1730n 
    3.32000p  700.0000m  126.1730n 
    3.33000p  700.0000m  126.1730n 
    3.34000p  700.0000m  126.1730n 
    3.35000p  700.0000m  126.1730n 
    3.36000p  700.0000m  126.1730n 
    3.37000p  700.0000m  126.1730n 
    3.38000p  700.0000m  126.1730n 
    3.39000p  700.0000m  126.1730n 
    3.40000p  700.0000m  126.1730n 
    3.41000p  700.0000m  126.1730n 
    3.42000p  700.0000m  126.1730n 
    3.43000p  700.0000m  126.1730n 
    3.44000p  700.0000m  126.1730n 
    3.45000p  700.0000m  126.1730n 
    3.46000p  700.0000m  126.1730n 
    3.47000p  700.0000m  126.1730n 
    3.48000p  700.0000m  126.1730n 
    3.49000p  700.0000m  126.1730n 
    3.50000p  700.0000m  126.1730n 
    3.51000p  700.0000m  126.1730n 
    3.52000p  700.0000m  126.1730n 
    3.53000p  700.0000m  126.1730n 
    3.54000p  700.0000m  126.1730n 
    3.55000p  700.0000m  126.1730n 
    3.56000p  700.0000m  126.1730n 
    3.57000p  700.0000m  126.1730n 
    3.58000p  700.0000m  126.1730n 
    3.59000p  700.0000m  126.1730n 
    3.60000p  700.0000m  126.1730n 
    3.61000p  700.0000m  126.1730n 
    3.62000p  700.0000m  126.1730n 
    3.63000p  700.0000m  126.1730n 
    3.64000p  700.0000m  126.1730n 
    3.65000p  700.0000m  126.1730n 
    3.66000p  700.0000m  126.1730n 
    3.67000p  700.0000m  126.1730n 
    3.68000p  700.0000m  126.1730n 
    3.69000p  700.0000m  126.1730n 
    3.70000p  700.0000m  126.1730n 
    3.71000p  700.0000m  126.1730n 
    3.72000p  700.0000m  126.1730n 
    3.73000p  700.0000m  126.1730n 
    3.74000p  700.0000m  126.1730n 
    3.75000p  700.0000m  126.1730n 
    3.76000p  700.0000m  126.1730n 
    3.77000p  700.0000m  126.1730n 
    3.78000p  700.0000m  126.1730n 
    3.79000p  700.0000m  126.1730n 
    3.80000p  700.0000m  126.1730n 
    3.81000p  700.0000m  126.1730n 
    3.82000p  700.0000m  126.1730n 
    3.83000p  700.0000m  126.1730n 
    3.84000p  700.0000m  126.1730n 
    3.85000p  700.0000m  126.1730n 
    3.86000p  700.0000m  126.1730n 
    3.87000p  700.0000m  126.1730n 
    3.88000p  700.0000m  126.1730n 
    3.89000p  700.0000m  126.1730n 
    3.90000p  700.0000m  126.1730n 
    3.91000p  700.0000m  126.1730n 
    3.92000p  700.0000m  126.1730n 
    3.93000p  700.0000m  126.1730n 
    3.94000p  700.0000m  126.1730n 
    3.95000p  700.0000m  126.1730n 
    3.96000p  700.0000m  126.1730n 
    3.97000p  700.0000m  126.1730n 
    3.98000p  700.0000m  126.1730n 
    3.99000p  700.0000m  126.1730n 
    4.00000p  700.0000m  126.1730n 
    4.01000p  700.0000m  126.1730n 
    4.02000p  700.0000m  126.1730n 
    4.03000p  700.0000m  126.1730n 
    4.04000p  700.0000m  126.1730n 
    4.05000p  700.0000m  126.1730n 
    4.06000p  700.0000m  126.1730n 
    4.07000p  700.0000m  126.1730n 
    4.08000p  700.0000m  126.1730n 
    4.09000p  700.0000m  126.1730n 
    4.10000p  700.0000m  126.1730n 
    4.11000p  700.0000m  126.1730n 
    4.12000p  700.0000m  126.1730n 
    4.13000p  700.0000m  126.1730n 
    4.14000p  700.0000m  126.1730n 
    4.15000p  700.0000m  126.1730n 
    4.16000p  700.0000m  126.1730n 
    4.17000p  700.0000m  126.1730n 
    4.18000p  700.0000m  126.1730n 
    4.19000p  700.0000m  126.1730n 
    4.20000p  700.0000m  126.1730n 
    4.21000p  700.0000m  126.1730n 
    4.22000p  700.0000m  126.1730n 
    4.23000p  700.0000m  126.1730n 
    4.24000p  700.0000m  126.1730n 
    4.25000p  700.0000m  126.1730n 
    4.26000p  700.0000m  126.1730n 
    4.27000p  700.0000m  126.1730n 
    4.28000p  700.0000m  126.1730n 
    4.29000p  700.0000m  126.1730n 
    4.30000p  700.0000m  126.1730n 
    4.31000p  700.0000m  126.1730n 
    4.32000p  700.0000m  126.1730n 
    4.33000p  700.0000m  126.1730n 
    4.34000p  700.0000m  126.1730n 
    4.35000p  700.0000m  126.1730n 
    4.36000p  700.0000m  126.1730n 
    4.37000p  700.0000m  126.1730n 
    4.38000p  700.0000m  126.1730n 
    4.39000p  700.0000m  126.1730n 
    4.40000p  700.0000m  126.1730n 
    4.41000p  700.0000m  126.1730n 
    4.42000p  700.0000m  126.1730n 
    4.43000p  700.0000m  126.1730n 
    4.44000p  700.0000m  126.1730n 
    4.45000p  700.0000m  126.1730n 
    4.46000p  700.0000m  126.1730n 
    4.47000p  700.0000m  126.1730n 
    4.48000p  700.0000m  126.1730n 
    4.49000p  700.0000m  126.1730n 
    4.50000p  700.0000m  126.1730n 
    4.51000p  700.0000m  126.1730n 
    4.52000p  700.0000m  126.1730n 
    4.53000p  700.0000m  126.1730n 
    4.54000p  700.0000m  126.1730n 
    4.55000p  700.0000m  126.1730n 
    4.56000p  700.0000m  126.1730n 
    4.57000p  700.0000m  126.1730n 
    4.58000p  700.0000m  126.1730n 
    4.59000p  700.0000m  126.1730n 
    4.60000p  700.0000m  126.1730n 
    4.61000p  700.0000m  126.1730n 
    4.62000p  700.0000m  126.1730n 
    4.63000p  700.0000m  126.1730n 
    4.64000p  700.0000m  126.1730n 
    4.65000p  700.0000m  126.1730n 
    4.66000p  700.0000m  126.1730n 
    4.67000p  700.0000m  126.1730n 
    4.68000p  700.0000m  126.1730n 
    4.69000p  700.0000m  126.1730n 
    4.70000p  700.0000m  126.1730n 
    4.71000p  700.0000m  126.1730n 
    4.72000p  700.0000m  126.1730n 
    4.73000p  700.0000m  126.1730n 
    4.74000p  700.0000m  126.1730n 
    4.75000p  700.0000m  126.1730n 
    4.76000p  700.0000m  126.1730n 
    4.77000p  700.0000m  126.1730n 
    4.78000p  700.0000m  126.1730n 
    4.79000p  700.0000m  126.1730n 
    4.80000p  700.0000m  126.1730n 
    4.81000p  700.0000m  126.1730n 
    4.82000p  700.0000m  126.1730n 
    4.83000p  700.0000m  126.1730n 
    4.84000p  700.0000m  126.1730n 
    4.85000p  700.0000m  126.1730n 
    4.86000p  700.0000m  126.1730n 
    4.87000p  700.0000m  126.1730n 
    4.88000p  700.0000m  126.1730n 
    4.89000p  700.0000m  126.1730n 
    4.90000p  700.0000m  126.1730n 
    4.91000p  700.0000m  126.1730n 
    4.92000p  700.0000m  126.1730n 
    4.93000p  700.0000m  126.1730n 
    4.94000p  700.0000m  126.1730n 
    4.95000p  700.0000m  126.1730n 
    4.96000p  700.0000m  126.1730n 
    4.97000p  700.0000m  126.1730n 
    4.98000p  700.0000m  126.1730n 
    4.99000p  700.0000m  126.1730n 
    5.00000p  700.0000m  126.1730n 
    5.01000p  700.0085m  114.5952u 
    5.02000p  700.0170m  229.0642u 
    5.03000p  700.0255m  343.5333u 
    5.04000p  700.0338m  466.4148u 
    5.05000p  700.0415m  614.5337u 
    5.06000p  700.0492m  762.6527u 
    5.07000p  700.0569m  910.7717u 
    5.08000p  700.0646m    1.0589m 
    5.09000p  700.0723m    1.2070m 
    5.10000p  700.0800m    1.3551m 
    5.11000p  700.0877m    1.5032m 
    5.12000p  700.0954m    1.6514m 
    5.13000p  700.1027m    1.7996m 
    5.14000p  700.1052m    1.9491m 
    5.15000p  700.1078m    2.0986m 
    5.16000p  700.1104m    2.2480m 
    5.17000p  700.1129m    2.3975m 
    5.18000p  700.1155m    2.5470m 
    5.19000p  700.1181m    2.6965m 
    5.20000p  700.1206m    2.8459m 
    5.21000p  700.1205m    2.9606m 
    5.22000p  700.1196m    3.0635m 
    5.23000p  700.1186m    3.1664m 
    5.24000p  700.1176m    3.2692m 
    5.25000p  700.1166m    3.3721m 
    5.26000p  700.1157m    3.4750m 
    5.27000p  700.1147m    3.5778m 
    5.28000p  700.1137m    3.6807m 
    5.29000p  700.1127m    3.7836m 
    5.30000p  700.1118m    3.8864m 
    5.31000p  700.1108m    3.9893m 
    5.32000p  700.1098m    4.0922m 
    5.33000p  700.1088m    4.1950m 
    5.34000p  700.1079m    4.2979m 
    5.35000p  700.1069m    4.4008m 
    5.36000p  700.1059m    4.5036m 
    5.37000p  700.1049m    4.6065m 
    5.38000p  700.1039m    4.6957m 
    5.39000p  700.1028m    4.7728m 
    5.40000p  700.1018m    4.8499m 
    5.41000p  700.1007m    4.9271m 
    5.42000p  700.0997m    5.0042m 
    5.43000p  700.0986m    5.0814m 
    5.44000p  700.0975m    5.1585m 
    5.45000p  700.0965m    5.2356m 
    5.46000p  700.0954m    5.3128m 
    5.47000p  700.0944m    5.3899m 
    5.48000p  700.0933m    5.4670m 
    5.49000p  700.0922m    5.5442m 
    5.50000p  700.0912m    5.6213m 
    5.51000p  700.0901m    5.6984m 
    5.52000p  700.0890m    5.7756m 
    5.53000p  700.0880m    5.8527m 
    5.54000p  700.0869m    5.9298m 
    5.55000p  700.0858m    6.0066m 
    5.56000p  700.0841m    6.0726m 
    5.57000p  700.0823m    6.1385m 
    5.58000p  700.0805m    6.2045m 
    5.59000p  700.0787m    6.2705m 
    5.60000p  700.0770m    6.3364m 
    5.61000p  700.0752m    6.4024m 
    5.62000p  700.0734m    6.4683m 
    5.63000p  700.0716m    6.5343m 
    5.64000p  700.0694m    6.5925m 
    5.65000p  700.0660m    6.6327m 
    5.66000p  700.0626m    6.6729m 
    5.67000p  700.0592m    6.7130m 
    5.68000p  700.0558m    6.7532m 
    5.69000p  700.0524m    6.7934m 
    5.70000p  700.0490m    6.8335m 
    5.71000p  700.0456m    6.8737m 
    5.72000p  700.0421m    6.9138m 
    5.73000p  700.0387m    6.9540m 
    5.74000p  700.0353m    6.9942m 
    5.75000p  700.0319m    7.0343m 
    5.76000p  700.0285m    7.0745m 
    5.77000p  700.0251m    7.1146m 
    5.78000p  700.0217m    7.1548m 
    5.79000p  700.0183m    7.1950m 
    5.80000p  700.0149m    7.2351m 
    5.81000p  700.0115m    7.2753m 
    5.82000p  700.0081m    7.3154m 
    5.83000p  700.0047m    7.3556m 
    5.84000p  700.0013m    7.3958m 
    5.85000p  699.9979m    7.4359m 
    5.86000p  699.9945m    7.4761m 
    5.87000p  699.9911m    7.5163m 
    5.88000p  699.9877m    7.5564m 
    5.89000p  699.9843m    7.5966m 
    5.90000p  699.9809m    7.6367m 
    5.91000p  699.9775m    7.6769m 
    5.92000p  699.9734m    7.7061m 
    5.93000p  699.9681m    7.7150m 
    5.94000p  699.9628m    7.7239m 
    5.95000p  699.9576m    7.7328m 
    5.96000p  699.9523m    7.7417m 
    5.97000p  699.9470m    7.7506m 
    5.98000p  699.9417m    7.7595m 
    5.99000p  699.9365m    7.7684m 
    6.00000p  699.9312m    7.7772m 
    6.01000p  699.9184m    7.6821m 
    6.02000p  699.9057m    7.5869m 
    6.03000p  699.8929m    7.4918m 
    6.04000p  699.8795m    7.3813m 
    6.05000p  699.8664m    7.2555m 
    6.06000p  699.8534m    7.1268m 
    6.07000p  699.8404m    6.9982m 
    6.08000p  699.8310m    6.8680m 
    6.09000p  699.8240m    6.7367m 
    6.10000p  699.8171m    6.6054m 
    6.11000p  699.8101m    6.4742m 
    6.12000p  699.8031m    6.3429m 
    6.13000p  699.7961m    6.2116m 
    6.14000p  699.7892m    6.0803m 
    6.15000p  699.7822m    5.9491m 
    6.16000p  699.7752m    5.8178m 
    6.17000p  699.7682m    5.6865m 
    6.18000p  699.7639m    5.5662m 
    6.19000p  699.7641m    5.4648m 
    6.20000p  699.7643m    5.3633m 
    6.21000p  699.7645m    5.2619m 
    6.22000p  699.7647m    5.1604m 
    6.23000p  699.7649m    5.0590m 
    6.24000p  699.7651m    4.9576m 
    6.25000p  699.7653m    4.8561m 
    6.26000p  699.7655m    4.7547m 
    6.27000p  699.7657m    4.6532m 
    6.28000p  699.7659m    4.5518m 
    6.29000p  699.7661m    4.4503m 
    6.30000p  699.7663m    4.3489m 
    6.31000p  699.7674m    4.2518m 
    6.32000p  699.7691m    4.1570m 
    6.33000p  699.7709m    4.0623m 
    6.34000p  699.7726m    3.9676m 
    6.35000p  699.7743m    3.8729m 
    6.36000p  699.7760m    3.7782m 
    6.37000p  699.7777m    3.6835m 
    6.38000p  699.7794m    3.5888m 
    6.39000p  699.7812m    3.4940m 
    6.40000p  699.7829m    3.3993m 
    6.41000p  699.7846m    3.3046m 
    6.42000p  699.7863m    3.2099m 
    6.43000p  699.7880m    3.1152m 
    6.44000p  699.7898m    3.0205m 
    6.45000p  699.7915m    2.9258m 
    6.46000p  699.7932m    2.8310m 
    6.47000p  699.7949m    2.7363m 
    6.48000p  699.7966m    2.6416m 
    6.49000p  699.7983m    2.5469m 
    6.50000p  699.8002m    2.3911m 
    6.51000p  699.8020m    2.2315m 
    6.52000p  699.8038m    2.0720m 
    6.53000p  699.8057m    1.9125m 
    6.54000p  699.8075m    1.7529m 
    6.55000p  699.8094m    1.5934m 
    6.56000p  699.8112m    1.4339m 
    6.57000p  699.8130m    1.2743m 
    6.58000p  699.8149m    1.1148m 
    6.59000p  699.8167m  955.2851u 
    6.60000p  699.8185m  795.7538u 
    6.61000p  699.8204m  636.2225u 
    6.62000p  699.8222m  476.6912u 
    6.63000p  699.8241m  317.1599u 
    6.64000p  699.8259m  157.6286u 
    6.65000p  699.8277m   -1.9027u 
    6.66000p  699.8296m -161.4340u 
    6.67000p  699.8314m -320.9652u 
    6.68000p  699.8332m -480.4965u 
    6.69000p  699.8351m -640.0278u 
    6.70000p  699.8369m -799.5591u 
    6.71000p  699.8387m -959.0904u 
    6.72000p  699.8411m   -1.1642m 
    6.73000p  699.8435m   -1.3841m 
    6.74000p  699.8460m   -1.6040m 
    6.75000p  699.8485m   -1.8239m 
    6.76000p  699.8510m   -2.0438m 
    6.77000p  699.8534m   -2.2637m 
    6.78000p  699.8559m   -2.4836m 
    6.79000p  699.8584m   -2.7035m 
    6.80000p  699.8609m   -2.9234m 
    6.81000p  699.8633m   -3.1433m 
    6.82000p  699.8658m   -3.3632m 
    6.83000p  699.8683m   -3.5831m 
    6.84000p  699.8707m   -3.8030m 
    6.85000p  699.8732m   -4.0229m 
    6.86000p  699.8757m   -4.2428m 
    6.87000p  699.8782m   -4.4627m 
    6.88000p  699.8806m   -4.6826m 
    6.89000p  699.8831m   -4.9025m 
    6.90000p  699.8856m   -5.1224m 
    6.91000p  699.8881m   -5.3422m 
    6.92000p  699.8905m   -5.5621m 
    6.93000p  699.8930m   -5.7820m 
    6.94000p  699.8955m   -6.0019m 
    6.95000p  699.8979m   -6.2147m 
    6.96000p  699.9002m   -6.4078m 
    6.97000p  699.9024m   -6.6010m 
    6.98000p  699.9047m   -6.7941m 
    6.99000p  699.9069m   -6.9873m 
    7.00000p  699.9092m   -7.1804m 
    7.01000p  699.9114m   -7.3736m 
    7.02000p  699.9137m   -7.5667m 
    7.03000p  699.9160m   -7.7598m 
    7.04000p  699.9182m   -7.9530m 
    7.05000p  699.9205m   -8.1461m 
    7.06000p  699.9227m   -8.3393m 
    7.07000p  699.9250m   -8.5324m 
    7.08000p  699.9272m   -8.7256m 
    7.09000p  699.9295m   -8.9187m 
    7.10000p  699.9318m   -9.1119m 
    7.11000p  699.9340m   -9.3050m 
    7.12000p  699.9363m   -9.4982m 
    7.13000p  699.9385m   -9.6913m 
    7.14000p  699.9408m   -9.8844m 
    7.15000p  699.9430m  -10.0776m 
    7.16000p  699.9453m  -10.2707m 
    7.17000p  699.9476m  -10.4639m 
    7.18000p  699.9498m  -10.6570m 
    7.19000p  699.9518m  -10.8372m 
    7.20000p  699.9531m  -10.9896m 
    7.21000p  699.9544m  -11.1420m 
    7.22000p  699.9558m  -11.2944m 
    7.23000p  699.9571m  -11.4468m 
    7.24000p  699.9584m  -11.5992m 
    7.25000p  699.9598m  -11.7516m 
    7.26000p  699.9611m  -11.9041m 
    7.27000p  699.9624m  -12.0565m 
    7.28000p  699.9637m  -12.2089m 
    7.29000p  699.9651m  -12.3613m 
    7.30000p  699.9664m  -12.5137m 
    7.31000p  699.9677m  -12.6661m 
    7.32000p  699.9691m  -12.8185m 
    7.33000p  699.9704m  -12.9709m 
    7.34000p  699.9717m  -13.1233m 
    7.35000p  699.9730m  -13.2757m 
    7.36000p  699.9744m  -13.4282m 
    7.37000p  699.9757m  -13.5806m 
    7.38000p  699.9770m  -13.7330m 
    7.39000p  699.9784m  -13.8854m 
    7.40000p  699.9797m  -14.0378m 
    7.41000p  699.9810m  -14.1902m 
    7.42000p  699.9824m  -14.3426m 
    7.43000p  699.9837m  -14.4950m 
    7.44000p  699.9846m  -14.6365m 
    7.45000p  699.9850m  -14.7678m 
    7.46000p  699.9855m  -14.8992m 
    7.47000p  699.9859m  -15.0305m 
    7.48000p  699.9863m  -15.1618m 
    7.49000p  699.9868m  -15.2932m 
    7.50000p  699.9872m  -15.4245m 
    7.51000p  699.9877m  -15.5558m 
    7.52000p  699.9881m  -15.6872m 
    7.53000p  699.9886m  -15.8185m 
    7.54000p  699.9890m  -15.9498m 
    7.55000p  699.9895m  -16.0811m 
    7.56000p  699.9899m  -16.2125m 
    7.57000p  699.9904m  -16.3438m 
    7.58000p  699.9908m  -16.4751m 
    7.59000p  699.9913m  -16.6065m 
    7.60000p  699.9917m  -16.7378m 
    7.61000p  699.9922m  -16.8691m 
    7.62000p  699.9926m  -17.0004m 
    7.63000p  699.9931m  -17.1318m 
    7.64000p  699.9935m  -17.2631m 
    7.65000p  699.9940m  -17.3944m 
    7.66000p  699.9944m  -17.5258m 
    7.67000p  699.9949m  -17.6571m 
    7.68000p  699.9953m  -17.7884m 
    7.69000p  699.9958m  -17.9197m 
    7.70000p  699.9962m  -18.0511m 
    7.71000p  699.9967m  -18.1824m 
    7.72000p  699.9971m  -18.3137m 
    7.73000p  699.9976m  -18.4451m 
    7.74000p  699.9980m  -18.5764m 
    7.75000p  699.9985m  -18.7077m 
    7.76000p  699.9989m  -18.8391m 
    7.77000p  699.9994m  -18.9704m 
    7.78000p  699.9998m  -19.1017m 
    7.79000p  700.0002m  -19.2330m 
    7.80000p  700.0007m  -19.3644m 
    7.81000p  700.0011m  -19.4957m 
    7.82000p  700.0016m  -19.6270m 
    7.83000p  700.0020m  -19.7584m 
    7.84000p  700.0025m  -19.8897m 
    7.85000p  700.0029m  -20.0210m 
    7.86000p  700.0034m  -20.1523m 
    7.87000p  700.0038m  -20.2837m 
    7.88000p  700.0043m  -20.4150m 
    7.89000p  700.0047m  -20.5463m 
    7.90000p  700.0052m  -20.6777m 
    7.91000p  700.0056m  -20.8090m 
    7.92000p  700.0061m  -20.9403m 
    7.93000p  700.0065m  -21.0716m 
    7.94000p  700.0061m  -21.2314m 
    7.95000p  700.0048m  -21.4198m 
    7.96000p  700.0035m  -21.6082m 
    7.97000p  700.0023m  -21.7965m 
    7.98000p  700.0010m  -21.9849m 
    7.99000p  699.9997m  -22.1733m 
    8.00000p  699.9984m  -22.3617m 
    8.01000p  699.9971m  -22.5501m 
    8.02000p  699.9958m  -22.7384m 
    8.03000p  699.9945m  -22.9268m 
    8.04000p  699.9933m  -23.1152m 
    8.05000p  699.9920m  -23.3036m 
    8.06000p  699.9907m  -23.4919m 
    8.07000p  699.9894m  -23.6803m 
    8.08000p  699.9881m  -23.8687m 
    8.09000p  699.9868m  -24.0571m 
    8.10000p  699.9855m  -24.2454m 
    8.11000p  699.9843m  -24.4338m 
    8.12000p  699.9830m  -24.6222m 
    8.13000p  699.9817m  -24.8106m 
    8.14000p  699.9804m  -24.9989m 
    8.15000p  699.9791m  -25.1873m 
    8.16000p  699.9778m  -25.3757m 
    8.17000p  699.9765m  -25.5641m 
    8.18000p  699.9753m  -25.7525m 
    8.19000p  699.9740m  -25.9408m 
    8.20000p  699.9727m  -26.1292m 
    8.21000p  699.9714m  -26.3176m 
    8.22000p  699.9701m  -26.5060m 
    8.23000p  699.9688m  -26.6943m 
    8.24000p  699.9675m  -26.8827m 
    8.25000p  699.9663m  -27.0711m 
    8.26000p  699.9650m  -27.2595m 
    8.27000p  699.9637m  -27.4478m 
    8.28000p  699.9624m  -27.6362m 
    8.29000p  699.9611m  -27.8246m 
    8.30000p  699.9598m  -28.0130m 
    8.31000p  699.9586m  -28.2013m 
    8.32000p  699.9573m  -28.3897m 
    8.33000p  699.9560m  -28.5781m 
    8.34000p  699.9547m  -28.7665m 
    8.35000p  699.9534m  -28.9549m 
    8.36000p  699.9521m  -29.1432m 
    8.37000p  699.9508m  -29.3316m 
    8.38000p  699.9496m  -29.5200m 
    8.39000p  699.9483m  -29.7084m 
    8.40000p  699.9470m  -29.8967m 
    8.41000p  699.9457m  -30.0851m 
    8.42000p  699.9444m  -30.2735m 
    8.43000p  699.9431m  -30.4619m 
    8.44000p  699.9418m  -30.6502m 
    8.45000p  699.9406m  -30.8386m 
    8.46000p  699.9393m  -31.0270m 
    8.47000p  699.9380m  -31.2154m 
    8.48000p  699.9367m  -31.4037m 
    8.49000p  699.9354m  -31.5921m 
    8.50000p  699.9341m  -31.7805m 
    8.51000p  699.9328m  -31.9689m 
    8.52000p  699.9316m  -32.1573m 
    8.53000p  699.9303m  -32.3456m 
    8.54000p  699.9290m  -32.5340m 
    8.55000p  699.9277m  -32.7224m 
    8.56000p  699.9264m  -32.9108m 
    8.57000p  699.9251m  -33.0991m 
    8.58000p  699.9238m  -33.2875m 
    8.59000p  699.9226m  -33.4759m 
    8.60000p  699.9213m  -33.6643m 
    8.61000p  699.9200m  -33.8526m 
    8.62000p  699.9187m  -34.0410m 
    8.63000p  699.9192m  -34.1328m 
    8.64000p  699.9215m  -34.1243m 
    8.65000p  699.9238m  -34.1158m 
    8.66000p  699.9261m  -34.1074m 
    8.67000p  699.9284m  -34.0989m 
    8.68000p  699.9307m  -34.0904m 
    8.69000p  699.9330m  -34.0819m 
    8.70000p  699.9353m  -34.0734m 
    8.71000p  699.9376m  -34.0650m 
    8.72000p  699.9399m  -34.0565m 
    8.73000p  699.9422m  -34.0480m 
    8.74000p  699.9445m  -34.0395m 
    8.75000p  699.9468m  -34.0311m 
    8.76000p  699.9491m  -34.0226m 
    8.77000p  699.9514m  -34.0141m 
    8.78000p  699.9537m  -34.0056m 
    8.79000p  699.9560m  -33.9972m 
    8.80000p  699.9583m  -33.9887m 
    8.81000p  699.9606m  -33.9802m 
    8.82000p  699.9629m  -33.9717m 
    8.83000p  699.9652m  -33.9633m 
    8.84000p  699.9675m  -33.9548m 
    8.85000p  699.9698m  -33.9463m 
    8.86000p  699.9721m  -33.9378m 
    8.87000p  699.9744m  -33.9293m 
    8.88000p  699.9767m  -33.9209m 
    8.89000p  699.9790m  -33.9124m 
    8.90000p  699.9813m  -33.9039m 
    8.91000p  699.9836m  -33.8954m 
    8.92000p  699.9859m  -33.8870m 
    8.93000p  699.9882m  -33.8785m 
    8.94000p  699.9906m  -33.8700m 
    8.95000p  699.9929m  -33.8615m 
    8.96000p  699.9952m  -33.8531m 
    8.97000p  699.9975m  -33.8446m 
    8.98000p  699.9998m  -33.8361m 
    8.99000p  700.0021m  -33.8276m 
    9.00000p  700.0044m  -33.8191m 
    9.01000p  700.0067m  -33.8107m 
    9.02000p  700.0090m  -33.8022m 
    9.03000p  700.0113m  -33.7937m 
    9.04000p  700.0136m  -33.7852m 
    9.05000p  700.0159m  -33.7768m 
    9.06000p  700.0182m  -33.7683m 
    9.07000p  700.0205m  -33.7598m 
    9.08000p  700.0228m  -33.7513m 
    9.09000p  700.0251m  -33.7429m 
    9.10000p  700.0274m  -33.7344m 
    9.11000p  700.0297m  -33.7259m 
    9.12000p  700.0320m  -33.7174m 
    9.13000p  700.0343m  -33.7090m 
    9.14000p  700.0366m  -33.7005m 
    9.15000p  700.0389m  -33.6920m 
    9.16000p  700.0412m  -33.6835m 
    9.17000p  700.0435m  -33.6750m 
    9.18000p  700.0458m  -33.6666m 
    9.19000p  700.0481m  -33.6581m 
    9.20000p  700.0504m  -33.6496m 
    9.21000p  700.0527m  -33.6411m 
    9.22000p  700.0550m  -33.6327m 
    9.23000p  700.0573m  -33.6242m 
    9.24000p  700.0596m  -33.6157m 
    9.25000p  700.0619m  -33.6072m 
    9.26000p  700.0642m  -33.5988m 
    9.27000p  700.0665m  -33.5903m 
    9.28000p  700.0688m  -33.5818m 
    9.29000p  700.0711m  -33.5733m 
    9.30000p  700.0734m  -33.5649m 
    9.31000p  700.0757m  -33.5564m 
    9.32000p  700.0780m  -33.5479m 
    9.33000p  700.0803m  -33.5394m 
    9.34000p  700.0826m  -33.5309m 
    9.35000p  700.0849m  -33.5225m 
    9.36000p  700.0872m  -33.5140m 
    9.37000p  700.0895m  -33.5055m 
    9.38000p  700.0919m  -33.4970m 
    9.39000p  700.0942m  -33.4886m 
    9.40000p  700.0965m  -33.4801m 
    9.41000p  700.0988m  -33.4716m 
    9.42000p  700.1011m  -33.4631m 
    9.43000p  700.1034m  -33.4547m 
    9.44000p  700.1057m  -33.4462m 
    9.45000p  700.1080m  -33.4377m 
    9.46000p  700.1103m  -33.4292m 
    9.47000p  700.1126m  -33.4207m 
    9.48000p  700.1149m  -33.4123m 
    9.49000p  700.1172m  -33.4038m 
    9.50000p  700.1195m  -33.3953m 
    9.51000p  700.1218m  -33.3868m 
    9.52000p  700.1241m  -33.3784m 
    9.53000p  700.1264m  -33.3699m 
    9.54000p  700.1287m  -33.3614m 
    9.55000p  700.1310m  -33.3529m 
    9.56000p  700.1333m  -33.3445m 
    9.57000p  700.1356m  -33.3360m 
    9.58000p  700.1379m  -33.3275m 
    9.59000p  700.1402m  -33.3190m 
    9.60000p  700.1425m  -33.3106m 
    9.61000p  700.1448m  -33.3021m 
    9.62000p  700.1471m  -33.2936m 
    9.63000p  700.1494m  -33.2851m 
    9.64000p  700.1517m  -33.2766m 
    9.65000p  700.1540m  -33.2682m 
    9.66000p  700.1563m  -33.2597m 
    9.67000p  700.1606m  -32.7407m 
    9.68000p  700.1658m  -31.9992m 
    9.69000p  700.1709m  -31.2576m 
    9.70000p  700.1761m  -30.5160m 
    9.71000p  700.1812m  -29.7745m 
    9.72000p  700.1864m  -29.0329m 
    9.73000p  700.1916m  -28.2913m 
    9.74000p  700.1967m  -27.5498m 
    9.75000p  700.2019m  -26.8082m 
    9.76000p  700.2070m  -26.0667m 
    9.77000p  700.2122m  -25.3251m 
    9.78000p  700.2173m  -24.5835m 
    9.79000p  700.2225m  -23.8420m 
    9.80000p  700.2277m  -23.1004m 
    9.81000p  700.2328m  -22.3588m 
    9.82000p  700.2380m  -21.6173m 
    9.83000p  700.2431m  -20.8757m 
    9.84000p  700.2483m  -20.1342m 
    9.85000p  700.2534m  -19.3926m 
    9.86000p  700.2586m  -18.6510m 
    9.87000p  700.2638m  -17.9095m 
    9.88000p  700.2689m  -17.1679m 
    9.89000p  700.2741m  -16.4263m 
    9.90000p  700.2792m  -15.6848m 
    9.91000p  700.2844m  -14.9432m 
    9.92000p  700.2895m  -14.2017m 
    9.93000p  700.2947m  -13.4601m 
    9.94000p  700.2999m  -12.7185m 
    9.95000p  700.3050m  -11.9770m 
    9.96000p  700.3102m  -11.2354m 
    9.97000p  700.3153m  -10.4938m 
    9.98000p  700.3205m   -9.7523m 
    9.99000p  700.3257m   -9.0107m 
   10.00000p  700.3308m   -8.2692m 
   10.01000p  700.3360m   -7.5276m 
   10.02000p  700.3411m   -6.7860m 
   10.03000p  700.3463m   -6.0445m 
   10.04000p  700.3514m   -5.3029m 
   10.05000p  700.3566m   -4.5613m 
   10.06000p  700.3618m   -3.8198m 
   10.07000p  700.3669m   -3.0782m 
   10.08000p  700.3721m   -2.3367m 
   10.09000p  700.3772m   -1.5951m 
   10.10000p  700.3824m -853.5311u 
   10.11000p  700.3875m -111.9685u 
   10.12000p  700.3927m  629.5941u 
   10.13000p  700.3979m    1.3712m 
   10.14000p  700.4030m    2.1127m 
   10.15000p  700.4082m    2.8543m 
   10.16000p  700.4133m    3.5958m 
   10.17000p  700.4185m    4.3374m 
   10.18000p  700.4236m    5.0790m 
   10.19000p  700.4288m    5.8205m 
   10.20000p  700.4340m    6.5621m 
   10.21000p  700.4391m    7.3037m 
   10.22000p  700.4443m    8.0452m 
   10.23000p  700.4494m    8.7868m 
   10.24000p  700.4546m    9.5283m 
   10.25000p  700.4597m   10.2699m 
   10.26000p  700.4649m   11.0115m 
   10.27000p  700.4701m   11.7530m 
   10.28000p  700.4752m   12.4946m 
   10.29000p  700.4804m   13.2362m 
   10.30000p  700.4855m   13.9777m 
   10.31000p  700.4907m   14.7193m 
   10.32000p  700.4959m   15.4608m 
   10.33000p  700.5010m   16.2024m 
   10.34000p  700.5062m   16.9440m 
   10.35000p  700.5113m   17.6855m 
   10.36000p  700.5165m   18.4271m 
   10.37000p  700.5216m   19.1687m 
   10.38000p  700.5268m   19.9102m 
   10.39000p  700.5320m   20.6518m 
   10.40000p  700.5371m   21.3933m 
   10.41000p  700.5423m   22.1349m 
   10.42000p  700.5474m   22.8765m 
   10.43000p  700.5526m   23.6180m 
   10.44000p  700.5577m   24.3596m 
   10.45000p  700.5629m   25.1012m 
   10.46000p  700.5681m   25.8427m 
   10.47000p  700.5732m   26.5843m 
   10.48000p  700.5784m   27.3258m 
   10.49000p  700.5835m   28.0674m 
   10.50000p  700.5887m   28.8090m 
   10.51000p  700.5938m   29.5505m 
   10.52000p  700.5990m   30.2921m 
   10.53000p  700.6042m   31.0337m 
   10.54000p  700.6093m   31.7752m 
   10.55000p  700.6145m   32.5168m 
   10.56000p  700.6196m   33.2583m 
   10.57000p  700.6248m   33.9999m 
   10.58000p  700.6300m   34.7415m 
   10.59000p  700.6351m   35.4830m 
   10.60000p  700.6403m   36.2246m 
   10.61000p  700.6454m   36.9662m 
   10.62000p  700.6506m   37.7077m 
   10.63000p  700.6557m   38.4493m 
   10.64000p  700.6609m   39.1909m 
   10.65000p  700.6661m   39.9324m 
   10.66000p  700.6712m   40.6740m 
   10.67000p  700.6764m   41.4155m 
   10.68000p  700.6815m   42.1571m 
   10.69000p  700.6867m   42.8987m 
   10.70000p  700.6918m   43.6402m 
   10.71000p  700.6923m   44.8220m 
   10.72000p  700.6913m   46.1442m 
   10.73000p  700.6902m   47.4665m 
   10.74000p  700.6892m   48.7887m 
   10.75000p  700.6882m   50.1110m 
   10.76000p  700.6872m   51.4332m 
   10.77000p  700.6861m   52.7554m 
   10.78000p  700.6851m   54.0777m 
   10.79000p  700.6841m   55.3999m 
   10.80000p  700.6830m   56.7222m 
   10.81000p  700.6820m   58.0444m 
   10.82000p  700.6810m   59.3667m 
   10.83000p  700.6799m   60.6889m 
   10.84000p  700.6789m   62.0111m 
   10.85000p  700.6779m   63.3334m 
   10.86000p  700.6769m   64.6556m 
   10.87000p  700.6758m   65.9779m 
   10.88000p  700.6748m   67.3001m 
   10.89000p  700.6738m   68.6223m 
   10.90000p  700.6727m   69.9446m 
   10.91000p  700.6717m   71.2668m 
   10.92000p  700.6707m   72.5891m 
   10.93000p  700.6696m   73.9113m 
   10.94000p  700.6686m   75.2336m 
   10.95000p  700.6676m   76.5558m 
   10.96000p  700.6665m   77.8780m 
   10.97000p  700.6655m   79.2003m 
   10.98000p  700.6645m   80.5225m 
   10.99000p  700.6635m   81.8448m 
   11.00000p  700.6624m   83.1670m 
   11.01000p  700.6614m   84.4892m 
   11.02000p  700.6604m   85.8115m 
   11.03000p  700.6593m   87.1337m 
   11.04000p  700.6583m   88.4560m 
   11.05000p  700.6573m   89.7782m 
   11.06000p  700.6562m   91.1004m 
   11.07000p  700.6552m   92.4227m 
   11.08000p  700.6542m   93.7449m 
   11.09000p  700.6531m   95.0672m 
   11.10000p  700.6521m   96.3894m 
   11.11000p  700.6511m   97.7117m 
   11.12000p  700.6501m   99.0339m 
   11.13000p  700.6490m  100.3561m 
   11.14000p  700.6480m  101.6784m 
   11.15000p  700.6470m  103.0006m 
   11.16000p  700.6459m  104.3229m 
   11.17000p  700.6449m  105.6451m 
   11.18000p  700.6439m  106.9673m 
   11.19000p  700.6428m  108.2896m 
   11.20000p  700.6418m  109.6118m 
   11.21000p  700.6408m  110.9341m 
   11.22000p  700.6398m  112.2563m 
   11.23000p  700.6387m  113.5785m 
   11.24000p  700.6377m  114.9008m 
   11.25000p  700.6367m  116.2230m 
   11.26000p  700.6356m  117.5453m 
   11.27000p  700.6346m  118.8675m 
   11.28000p  700.6336m  120.1898m 
   11.29000p  700.6325m  121.5120m 
   11.30000p  700.6315m  122.8342m 
   11.31000p  700.6305m  124.1565m 
   11.32000p  700.6294m  125.4787m 
   11.33000p  700.6284m  126.8010m 
   11.34000p  700.6274m  128.1232m 
   11.35000p  700.6264m  129.4454m 
   11.36000p  700.6253m  130.7677m 
   11.37000p  700.6243m  132.0899m 
   11.38000p  700.6233m  133.4122m 
   11.39000p  700.6222m  134.7344m 
   11.40000p  700.6212m  136.0566m 
   11.41000p  700.6202m  137.3789m 
   11.42000p  700.6191m  138.7011m 
   11.43000p  700.6181m  140.0234m 
   11.44000p  700.6171m  141.3456m 
   11.45000p  700.6160m  142.6679m 
   11.46000p  700.6150m  143.9901m 
   11.47000p  700.6140m  145.3123m 
   11.48000p  700.6130m  146.6346m 
   11.49000p  700.6119m  147.9568m 
   11.50000p  700.6109m  149.2791m 
   11.51000p  700.6099m  150.6013m 
   11.52000p  700.6088m  151.9235m 
   11.53000p  700.6078m  153.2458m 
   11.54000p  700.6068m  154.5680m 
   11.55000p  700.6057m  155.8903m 
   11.56000p  700.6047m  157.2125m 
   11.57000p  700.6037m  158.5348m 
   11.58000p  700.6027m  159.8570m 
   11.59000p  700.6016m  161.1792m 
   11.60000p  700.6006m  162.5015m 
   11.61000p  700.5996m  163.8237m 
   11.62000p  700.5985m  165.1460m 
   11.63000p  700.5975m  166.4682m 
   11.64000p  700.5965m  167.7904m 
   11.65000p  700.5954m  169.1127m 
   11.66000p  700.5944m  170.4349m 
   11.67000p  700.5934m  171.7572m 
   11.68000p  700.5923m  173.0794m 
   11.69000p  700.5913m  174.4016m 
   11.70000p  700.5903m  175.7239m 
   11.71000p  700.5855m  177.1454m 
   11.72000p  700.5795m  178.5974m 
   11.73000p  700.5736m  180.0494m 
   11.74000p  700.5676m  181.5014m 
   11.75000p  700.5617m  182.9535m 
   11.76000p  700.5557m  184.4055m 
   11.77000p  700.5498m  185.8575m 
   11.78000p  700.5438m  187.3095m 
   11.79000p  700.5379m  188.7616m 
   11.80000p  700.5319m  190.2136m 
   11.81000p  700.5260m  191.6656m 
   11.82000p  700.5200m  193.1176m 
   11.83000p  700.5141m  194.5697m 
   11.84000p  700.5081m  196.0217m 
   11.85000p  700.5022m  197.4737m 
   11.86000p  700.4962m  198.9257m 
   11.87000p  700.4903m  200.3778m 
   11.88000p  700.4843m  201.8298m 
   11.89000p  700.4784m  203.2818m 
   11.90000p  700.4724m  204.7338m 
   11.91000p  700.4665m  206.1859m 
   11.92000p  700.4605m  207.6379m 
   11.93000p  700.4546m  209.0899m 
   11.94000p  700.4486m  210.5419m 
   11.95000p  700.4427m  211.9940m 
   11.96000p  700.4367m  213.4460m 
   11.97000p  700.4308m  214.8980m 
   11.98000p  700.4248m  216.3500m 
   11.99000p  700.4189m  217.8021m 
   12.00000p  700.4129m  219.2541m 
   12.01000p  700.4069m  220.7061m 
   12.02000p  700.4010m  222.1581m 
   12.03000p  700.3950m  223.6102m 
   12.04000p  700.3891m  225.0622m 
   12.05000p  700.3831m  226.5142m 
   12.06000p  700.3772m  227.9662m 
   12.07000p  700.3716m  229.4502m 
   12.08000p  700.3666m  230.9955m 
   12.09000p  700.3616m  232.5408m 
   12.10000p  700.3566m  234.0861m 
   12.11000p  700.3517m  235.6314m 
   12.12000p  700.3467m  237.1767m 
   12.13000p  700.3417m  238.7220m 
   12.14000p  700.3367m  240.2673m 
   12.15000p  700.3318m  241.8126m 
   12.16000p  700.3268m  243.3580m 
   12.17000p  700.3218m  244.9033m 
   12.18000p  700.3168m  246.4486m 
   12.19000p  700.3118m  247.9939m 
   12.20000p  700.3069m  249.5392m 
   12.21000p  700.3019m  251.0845m 
   12.22000p  700.2969m  252.6298m 
   12.23000p  700.2919m  254.1751m 
   12.24000p  700.2870m  255.7204m 
   12.25000p  700.2820m  257.2657m 
   12.26000p  700.2770m  258.8111m 
   12.27000p  700.2720m  260.3564m 
   12.28000p  700.2670m  261.9017m 
   12.29000p  700.2621m  263.4470m 
   12.30000p  700.2571m  264.9923m 
   12.31000p  700.2521m  266.5376m 
   12.32000p  700.2471m  268.0829m 
   12.33000p  700.2422m  269.6282m 
   12.34000p  700.2372m  271.1735m 
   12.35000p  700.2322m  272.7188m 
   12.36000p  700.2272m  274.2641m 
   12.37000p  700.2222m  275.8095m 
   12.38000p  700.2173m  277.3548m 
   12.39000p  700.2123m  278.9001m 
   12.40000p  700.2073m  280.4454m 
   12.41000p  700.2023m  281.9907m 
   12.42000p  700.1974m  283.5360m 
   12.43000p  700.1924m  285.0813m 
   12.44000p  700.1874m  286.6266m 
   12.45000p  700.1824m  288.1719m 
   12.46000p  700.1774m  289.7172m 
   12.47000p  700.1725m  291.2626m 
   12.48000p  700.1675m  292.8079m 
   12.49000p  700.1625m  294.3532m 
   12.50000p  700.1575m  295.8985m 
   12.51000p  700.1526m  297.4438m 
   12.52000p  700.1476m  298.9891m 
   12.53000p  700.1426m  300.5344m 
   12.54000p  700.1376m  302.0797m 
   12.55000p  700.1326m  303.6250m 
   12.56000p  700.1277m  305.1703m 
   12.57000p  700.1227m  306.7157m 
   12.58000p  700.1177m  308.2610m 
   12.59000p  700.1127m  309.8063m 
   12.60000p  700.1078m  311.3516m 
   12.61000p  700.1028m  312.8969m 
   12.62000p  700.0978m  314.4422m 
   12.63000p  700.0928m  315.9875m 
   12.64000p  700.0878m  317.5328m 
   12.65000p  700.0829m  319.0781m 
   12.66000p  700.0779m  320.6234m 
   12.67000p  700.0729m  322.1688m 
   12.68000p  700.0679m  323.7141m 
   12.69000p  700.0630m  325.2594m 
   12.70000p  700.0580m  326.8047m 
   12.71000p  700.0530m  328.3500m 
   12.72000p  700.0480m  329.8953m 
   12.73000p  700.0430m  331.4406m 
   12.74000p  700.0381m  332.9859m 
   12.75000p  700.0331m  334.5312m 
   12.76000p  700.0281m  336.0765m 
   12.77000p  700.0231m  337.6219m 
   12.78000p  700.0182m  339.1672m 
   12.79000p  700.0132m  340.7125m 
   12.80000p  700.0082m  342.2578m 
   12.81000p  700.0032m  343.8031m 
   12.82000p  699.9983m  345.3484m 
   12.83000p  699.9933m  346.8937m 
   12.84000p  699.9883m  348.4390m 
   12.85000p  699.9833m  349.9843m 
   12.86000p  699.9783m  351.5296m 
   12.87000p  699.9734m  353.0750m 
   12.88000p  699.9684m  354.6203m 
   12.89000p  699.9634m  356.1656m 
   12.90000p  699.9584m  357.7109m 
   12.91000p  699.9535m  359.2562m 
   12.92000p  699.9485m  360.8015m 
   12.93000p  699.9435m  362.3468m 
   12.94000p  699.9385m  363.8921m 
   12.95000p  699.9335m  365.4374m 
   12.96000p  699.9286m  366.9827m 
   12.97000p  699.9236m  368.5281m 
   12.98000p  699.9186m  370.0734m 
   12.99000p  699.9136m  371.6187m 
   13.00000p  699.9087m  373.1640m 
   13.01000p  699.9037m  374.7093m 
   13.02000p  699.8987m  376.2546m 
   13.03000p  699.8937m  377.7999m 
   13.04000p  699.8887m  379.3452m 
   13.05000p  699.8838m  380.8905m 
   13.06000p  699.8788m  382.4358m 
   13.07000p  699.8738m  383.9812m 
   13.08000p  699.8688m  385.5265m 
   13.09000p  699.8639m  387.0718m 
   13.10000p  699.8589m  388.6171m 
   13.11000p  699.8539m  390.1624m 
   13.12000p  699.8489m  391.7077m 
   13.13000p  699.8439m  393.2530m 
   13.14000p  699.8390m  394.7983m 
   13.15000p  699.8340m  396.3436m 
   13.16000p  699.8290m  397.8889m 
   13.17000p  699.8240m  399.4343m 
   13.18000p  699.8217m  400.9838m 
   13.19000p  699.8216m  402.5369m 
   13.20000p  699.8215m  404.0900m 
   13.21000p  699.8213m  405.6431m 
   13.22000p  699.8212m  407.1962m 
   13.23000p  699.8211m  408.7493m 
   13.24000p  699.8209m  410.3024m 
   13.25000p  699.8208m  411.8555m 
   13.26000p  699.8207m  413.4086m 
   13.27000p  699.8205m  414.9617m 
   13.28000p  699.8204m  416.5148m 
   13.29000p  699.8203m  418.0679m 
   13.30000p  699.8201m  419.6210m 
   13.31000p  699.8200m  421.1741m 
   13.32000p  699.8199m  422.7271m 
   13.33000p  699.8197m  424.2802m 
   13.34000p  699.8196m  425.8333m 
   13.35000p  699.8195m  427.3864m 
   13.36000p  699.8193m  428.9395m 
   13.37000p  699.8192m  430.4926m 
   13.38000p  699.8191m  432.0457m 
   13.39000p  699.8189m  433.5988m 
   13.40000p  699.8188m  435.1519m 
   13.41000p  699.8187m  436.7050m 
   13.42000p  699.8185m  438.2581m 
   13.43000p  699.8184m  439.8112m 
   13.44000p  699.8183m  441.3643m 
   13.45000p  699.8181m  442.9174m 
   13.46000p  699.8180m  444.4704m 
   13.47000p  699.8179m  446.0235m 
   13.48000p  699.8177m  447.5766m 
   13.49000p  699.8176m  449.1297m 
   13.50000p  699.8175m  450.6828m 
   13.51000p  699.8173m  452.2359m 
   13.52000p  699.8172m  453.7890m 
   13.53000p  699.8171m  455.3421m 
   13.54000p  699.8169m  456.8952m 
   13.55000p  699.8168m  458.4483m 
   13.56000p  699.8167m  460.0014m 
   13.57000p  699.8166m  461.5545m 
   13.58000p  699.8164m  463.1076m 
   13.59000p  699.8163m  464.6607m 
   13.60000p  699.8162m  466.2137m 
   13.61000p  699.8160m  467.7668m 
   13.62000p  699.8159m  469.3199m 
   13.63000p  699.8158m  470.8730m 
   13.64000p  699.8156m  472.4261m 
   13.65000p  699.8155m  473.9792m 
   13.66000p  699.8154m  475.5323m 
   13.67000p  699.8152m  477.0854m 
   13.68000p  699.8151m  478.6385m 
   13.69000p  699.8150m  480.1916m 
   13.70000p  699.8148m  481.7447m 
   13.71000p  699.8147m  483.2978m 
   13.72000p  699.8146m  484.8509m 
   13.73000p  699.8144m  486.4040m 
   13.74000p  699.8143m  487.9570m 
   13.75000p  699.8142m  489.5101m 
   13.76000p  699.8140m  491.0632m 
   13.77000p  699.8139m  492.6163m 
   13.78000p  699.8138m  494.1694m 
   13.79000p  699.8136m  495.7225m 
   13.80000p  699.8135m  497.2756m 
   13.81000p  699.8134m  498.8287m 
   13.82000p  699.8132m  500.3818m 
   13.83000p  699.8131m  501.9349m 
   13.84000p  699.8130m  503.4880m 
   13.85000p  699.8128m  505.0411m 
   13.86000p  699.8127m  506.5942m 
   13.87000p  699.8126m  508.1472m 
   13.88000p  699.8124m  509.7003m 
   13.89000p  699.8123m  511.2534m 
   13.90000p  699.8122m  512.8065m 
   13.91000p  699.8120m  514.3596m 
   13.92000p  699.8119m  515.9127m 
   13.93000p  699.8118m  517.4658m 
   13.94000p  699.8117m  519.0189m 
   13.95000p  699.8115m  520.5720m 
   13.96000p  699.8114m  522.1251m 
   13.97000p  699.8113m  523.6782m 
   13.98000p  699.8111m  525.2313m 
   13.99000p  699.8110m  526.7844m 
   14.00000p  699.8109m  528.3375m 
   14.01000p  699.8107m  529.8905m 
   14.02000p  699.8106m  531.4436m 
   14.03000p  699.8105m  532.9967m 
   14.04000p  699.8103m  534.5498m 
   14.05000p  699.8102m  536.1029m 
   14.06000p  699.8101m  537.6560m 
   14.07000p  699.8099m  539.2091m 
   14.08000p  699.8098m  540.7622m 
   14.09000p  699.8097m  542.3153m 
   14.10000p  699.8095m  543.8684m 
   14.11000p  699.8094m  545.4215m 
   14.12000p  699.8092m  546.9039m 
   14.13000p  699.8085m  547.9996m 
   14.14000p  699.8078m  549.0953m 
   14.15000p  699.8071m  550.1910m 
   14.16000p  699.8065m  551.2867m 
   14.17000p  699.8058m  552.3824m 
   14.18000p  699.8051m  553.4781m 
   14.19000p  699.8044m  554.5738m 
   14.20000p  699.8037m  555.6695m 
   14.21000p  699.8031m  556.7652m 
   14.22000p  699.8024m  557.8609m 
   14.23000p  699.8017m  558.9567m 
   14.24000p  699.8010m  560.0524m 
   14.25000p  699.8003m  561.1481m 
   14.26000p  699.7997m  562.2438m 
   14.27000p  699.7990m  563.3395m 
   14.28000p  699.7983m  564.4352m 
   14.29000p  699.7976m  565.5309m 
   14.30000p  699.7969m  566.6266m 
   14.31000p  699.7963m  567.7223m 
   14.32000p  699.7956m  568.8180m 
   14.33000p  699.7949m  569.9137m 
   14.34000p  699.7942m  571.0094m 
   14.35000p  699.7935m  572.1051m 
   14.36000p  699.7929m  573.2008m 
   14.37000p  699.7922m  574.2965m 
   14.38000p  699.7915m  575.3922m 
   14.39000p  699.7908m  576.4880m 
   14.40000p  699.7901m  577.5837m 
   14.41000p  699.7895m  578.6794m 
   14.42000p  699.7888m  579.7751m 
   14.43000p  699.7881m  580.8708m 
   14.44000p  699.7874m  581.9665m 
   14.45000p  699.7868m  583.0622m 
   14.46000p  699.7861m  584.1579m 
   14.47000p  699.7854m  585.2536m 
   14.48000p  699.7847m  586.3493m 
   14.49000p  699.7840m  587.4450m 
   14.50000p  699.7834m  588.5407m 
   14.51000p  699.7827m  589.6364m 
   14.52000p  699.7820m  590.7321m 
   14.53000p  699.7813m  591.8278m 
   14.54000p  699.7806m  592.9236m 
   14.55000p  699.7800m  594.0193m 
   14.56000p  699.7793m  595.1150m 
   14.57000p  699.7786m  596.2107m 
   14.58000p  699.7779m  597.3064m 
   14.59000p  699.7772m  598.4021m 
   14.60000p  699.7766m  599.4978m 
   14.61000p  699.7759m  600.5935m 
   14.62000p  699.7752m  601.6892m 
   14.63000p  699.7745m  602.7849m 
   14.64000p  699.7738m  603.8806m 
   14.65000p  699.7732m  604.9763m 
   14.66000p  699.7725m  606.0720m 
   14.67000p  699.7718m  607.1677m 
   14.68000p  699.7711m  608.2634m 
   14.69000p  699.7704m  609.3591m 
   14.70000p  699.7698m  610.4549m 
   14.71000p  699.7691m  611.5506m 
   14.72000p  699.7684m  612.6463m 
   14.73000p  699.7677m  613.7420m 
   14.74000p  699.7670m  614.8377m 
   14.75000p  699.7664m  615.9334m 
   14.76000p  699.7657m  617.0291m 
   14.77000p  699.7650m  618.1248m 
   14.78000p  699.7643m  619.2205m 
   14.79000p  699.7636m  620.3162m 
   14.80000p  699.7630m  621.4119m 
   14.81000p  699.7623m  622.5076m 
   14.82000p  699.7616m  623.6033m 
   14.83000p  699.7609m  624.6990m 
   14.84000p  699.7602m  625.7947m 
   14.85000p  699.7596m  626.8904m 
   14.86000p  699.7586m  627.7693m 
   14.87000p  699.7575m  628.4642m 
   14.88000p  699.7563m  629.1591m 
   14.89000p  699.7551m  629.8540m 
   14.90000p  699.7540m  630.5489m 
   14.91000p  699.7528m  631.2438m 
   14.92000p  699.7517m  631.9387m 
   14.93000p  699.7505m  632.6336m 
   14.94000p  699.7493m  633.3285m 
   14.95000p  699.7482m  634.0234m 
   14.96000p  699.7470m  634.7182m 
   14.97000p  699.7459m  635.4131m 
   14.98000p  699.7447m  636.1080m 
   14.99000p  699.7435m  636.8029m 
   15.00000p  699.7424m  637.4978m 
   15.01000p  699.7412m  638.1927m 
   15.02000p  699.7401m  638.8876m 
   15.03000p  699.7389m  639.5825m 
   15.04000p  699.7378m  640.2774m 
   15.05000p  699.7366m  640.9723m 
   15.06000p  699.7354m  641.6672m 
   15.07000p  699.7343m  642.3621m 
   15.08000p  699.7331m  643.0570m 
   15.09000p  699.7320m  643.7519m 
   15.10000p  699.7308m  644.4468m 
   15.11000p  699.7296m  645.1417m 
   15.12000p  699.7285m  645.8366m 
   15.13000p  699.7273m  646.5315m 
   15.14000p  699.7262m  647.2264m 
   15.15000p  699.7250m  647.9213m 
   15.16000p  699.7238m  648.6162m 
   15.17000p  699.7227m  649.3111m 
   15.18000p  699.7215m  650.0059m 
   15.19000p  699.7204m  650.7008m 
   15.20000p  699.7192m  651.3957m 
   15.21000p  699.7180m  652.0906m 
   15.22000p  699.7169m  652.7855m 
   15.23000p  699.7157m  653.4804m 
   15.24000p  699.7146m  654.1753m 
   15.25000p  699.7134m  654.8702m 
   15.26000p  699.7122m  655.5651m 
   15.27000p  699.7111m  656.2600m 
   15.28000p  699.7099m  656.9549m 
   15.29000p  699.7088m  657.6498m 
   15.30000p  699.7076m  658.3447m 
   15.31000p  699.7065m  659.0396m 
   15.32000p  699.7053m  659.7345m 
   15.33000p  699.7041m  660.4294m 
   15.34000p  699.7030m  661.1243m 
   15.35000p  699.7018m  661.8192m 
   15.36000p  699.7007m  662.5141m 
   15.37000p  699.6995m  663.2090m 
   15.38000p  699.6983m  663.9039m 
   15.39000p  699.6972m  664.5988m 
   15.40000p  699.6960m  665.2936m 
   15.41000p  699.6949m  665.9885m 
   15.42000p  699.6937m  666.6834m 
   15.43000p  699.6925m  667.3783m 
   15.44000p  699.6914m  668.0732m 
   15.45000p  699.6902m  668.7681m 
   15.46000p  699.6891m  669.4630m 
   15.47000p  699.6879m  670.1579m 
   15.48000p  699.6867m  670.8528m 
   15.49000p  699.6856m  671.5477m 
   15.50000p  699.6844m  672.2426m 
   15.51000p  699.6833m  672.9375m 
   15.52000p  699.6821m  673.6324m 
   15.53000p  699.6809m  674.3273m 
   15.54000p  699.6798m  675.0222m 
   15.55000p  699.6786m  675.7171m 
   15.56000p  699.6775m  676.4120m 
   15.57000p  699.6763m  677.1069m 
   15.58000p  699.6751m  677.8018m 
   15.59000p  699.6740m  678.4967m 
   15.60000p  699.6739m  678.7001m 
   15.61000p  699.6739m  678.8651m 
   15.62000p  699.6740m  679.0302m 
   15.63000p  699.6740m  679.1952m 
   15.64000p  699.6740m  679.3602m 
   15.65000p  699.6740m  679.5253m 
   15.66000p  699.6740m  679.6903m 
   15.67000p  699.6740m  679.8553m 
   15.68000p  699.6741m  680.0204m 
   15.69000p  699.6741m  680.1854m 
   15.70000p  699.6741m  680.3504m 
   15.71000p  699.6741m  680.5155m 
   15.72000p  699.6741m  680.6805m 
   15.73000p  699.6741m  680.8455m 
   15.74000p  699.6741m  681.0106m 
   15.75000p  699.6742m  681.1756m 
   15.76000p  699.6742m  681.3406m 
   15.77000p  699.6742m  681.5057m 
   15.78000p  699.6742m  681.6707m 
   15.79000p  699.6742m  681.8358m 
   15.80000p  699.6742m  682.0008m 
   15.81000p  699.6743m  682.1658m 
   15.82000p  699.6743m  682.3309m 
   15.83000p  699.6743m  682.4959m 
   15.84000p  699.6743m  682.6609m 
   15.85000p  699.6743m  682.8260m 
   15.86000p  699.6743m  682.9910m 
   15.87000p  699.6744m  683.1560m 
   15.88000p  699.6744m  683.3211m 
   15.89000p  699.6744m  683.4861m 
   15.90000p  699.6744m  683.6511m 
   15.91000p  699.6744m  683.8162m 
   15.92000p  699.6744m  683.9812m 
   15.93000p  699.6745m  684.1463m 
   15.94000p  699.6745m  684.3113m 
   15.95000p  699.6745m  684.4763m 
   15.96000p  699.6745m  684.6414m 
   15.97000p  699.6745m  684.8064m 
   15.98000p  699.6745m  684.9714m 
   15.99000p  699.6746m  685.1365m 
   16.00000p  699.6746m  685.3015m 
   16.01000p  699.6746m  685.4665m 
   16.02000p  699.6746m  685.6316m 
   16.03000p  699.6746m  685.7966m 
   16.04000p  699.6746m  685.9616m 
   16.05000p  699.6747m  686.1267m 
   16.06000p  699.6747m  686.2917m 
   16.07000p  699.6747m  686.4568m 
   16.08000p  699.6747m  686.6218m 
   16.09000p  699.6747m  686.7868m 
   16.10000p  699.6747m  686.9519m 
   16.11000p  699.6748m  687.1169m 
   16.12000p  699.6748m  687.2819m 
   16.13000p  699.6748m  687.4470m 
   16.14000p  699.6748m  687.6120m 
   16.15000p  699.6748m  687.7770m 
   16.16000p  699.6748m  687.9421m 
   16.17000p  699.6749m  688.1071m 
   16.18000p  699.6749m  688.2721m 
   16.19000p  699.6749m  688.4372m 
   16.20000p  699.6749m  688.6022m 
   16.21000p  699.6749m  688.7673m 
   16.22000p  699.6749m  688.9323m 
   16.23000p  699.6750m  689.0973m 
   16.24000p  699.6750m  689.2624m 
   16.25000p  699.6750m  689.4274m 
   16.26000p  699.6750m  689.5924m 
   16.27000p  699.6750m  689.7575m 
   16.28000p  699.6750m  689.9225m 
   16.29000p  699.6751m  690.0875m 
   16.30000p  699.6751m  690.2526m 
   16.31000p  699.6751m  690.4176m 
   16.32000p  699.6751m  690.5826m 
   16.33000p  699.6751m  690.7477m 
   16.34000p  699.6751m  690.9127m 
   16.35000p  699.6752m  691.0778m 
   16.36000p  699.6752m  691.2428m 
   16.37000p  699.6752m  691.4078m 
   16.38000p  699.6752m  691.5729m 
   16.39000p  699.6752m  691.7379m 
   16.40000p  699.6752m  691.9029m 
   16.41000p  699.6752m  692.0680m 
   16.42000p  699.6753m  692.2330m 
   16.43000p  699.6753m  692.3980m 
   16.44000p  699.6753m  692.5631m 
   16.45000p  699.6753m  692.7281m 
   16.46000p  699.6753m  692.8931m 
   16.47000p  699.6753m  693.0582m 
   16.48000p  699.6754m  693.2232m 
   16.49000p  699.6754m  693.3883m 
   16.50000p  699.6754m  693.5533m 
   16.51000p  699.6754m  693.7183m 
   16.52000p  699.6754m  693.8834m 
   16.53000p  699.6754m  694.0484m 
   16.54000p  699.6755m  694.2134m 
   16.55000p  699.6755m  694.3785m 
   16.56000p  699.6755m  694.5435m 
   16.57000p  699.6755m  694.7085m 
   16.58000p  699.6755m  694.8736m 
   16.59000p  699.6755m  695.0386m 
   16.60000p  699.6756m  695.2036m 
   16.61000p  699.6756m  695.3687m 
   16.62000p  699.6756m  695.5337m 
   16.63000p  699.6756m  695.6988m 
   16.64000p  699.6756m  695.8638m 
   16.65000p  699.6756m  696.0288m 
   16.66000p  699.6757m  696.1939m 
   16.67000p  699.6757m  696.3589m 
   16.68000p  699.6757m  696.5239m 
   16.69000p  699.6757m  696.6890m 
   16.70000p  699.6757m  696.8540m 
   16.71000p  699.6757m  697.0190m 
   16.72000p  699.6762m  697.1498m 
   16.73000p  699.6779m  697.1619m 
   16.74000p  699.6797m  697.1740m 
   16.75000p  699.6815m  697.1861m 
   16.76000p  699.6832m  697.1982m 
   16.77000p  699.6850m  697.2103m 
   16.78000p  699.6868m  697.2224m 
   16.79000p  699.6885m  697.2345m 
   16.80000p  699.6903m  697.2466m 
   16.81000p  699.6921m  697.2587m 
   16.82000p  699.6938m  697.2708m 
   16.83000p  699.6956m  697.2829m 
   16.84000p  699.6974m  697.2950m 
   16.85000p  699.6991m  697.3071m 
   16.86000p  699.7009m  697.3193m 
   16.87000p  699.7027m  697.3314m 
   16.88000p  699.7044m  697.3435m 
   16.89000p  699.7062m  697.3556m 
   16.90000p  699.7080m  697.3677m 
   16.91000p  699.7097m  697.3798m 
   16.92000p  699.7115m  697.3919m 
   16.93000p  699.7133m  697.4040m 
   16.94000p  699.7150m  697.4161m 
   16.95000p  699.7168m  697.4282m 
   16.96000p  699.7186m  697.4403m 
   16.97000p  699.7204m  697.4524m 
   16.98000p  699.7221m  697.4645m 
   16.99000p  699.7239m  697.4766m 
   17.00000p  699.7257m  697.4888m 
   17.01000p  699.7274m  697.5009m 
   17.02000p  699.7292m  697.5130m 
   17.03000p  699.7310m  697.5251m 
   17.04000p  699.7327m  697.5372m 
   17.05000p  699.7345m  697.5493m 
   17.06000p  699.7363m  697.5614m 
   17.07000p  699.7380m  697.5735m 
   17.08000p  699.7398m  697.5856m 
   17.09000p  699.7416m  697.5977m 
   17.10000p  699.7433m  697.6098m 
   17.11000p  699.7451m  697.6219m 
   17.12000p  699.7469m  697.6340m 
   17.13000p  699.7486m  697.6461m 
   17.14000p  699.7504m  697.6583m 
   17.15000p  699.7522m  697.6704m 
   17.16000p  699.7539m  697.6825m 
   17.17000p  699.7557m  697.6946m 
   17.18000p  699.7575m  697.7067m 
   17.19000p  699.7592m  697.7188m 
   17.20000p  699.7610m  697.7309m 
   17.21000p  699.7628m  697.7430m 
   17.22000p  699.7646m  697.7551m 
   17.23000p  699.7663m  697.7672m 
   17.24000p  699.7681m  697.7793m 
   17.25000p  699.7699m  697.7914m 
   17.26000p  699.7716m  697.8035m 
   17.27000p  699.7734m  697.8156m 
   17.28000p  699.7752m  697.8277m 
   17.29000p  699.7769m  697.8399m 
   17.30000p  699.7787m  697.8520m 
   17.31000p  699.7805m  697.8641m 
   17.32000p  699.7822m  697.8762m 
   17.33000p  699.7840m  697.8883m 
   17.34000p  699.7858m  697.9004m 
   17.35000p  699.7875m  697.9125m 
   17.36000p  699.7893m  697.9246m 
   17.37000p  699.7911m  697.9367m 
   17.38000p  699.7928m  697.9488m 
   17.39000p  699.7946m  697.9609m 
   17.40000p  699.7964m  697.9730m 
   17.41000p  699.7981m  697.9851m 
   17.42000p  699.7999m  697.9972m 
   17.43000p  699.8017m  698.0094m 
   17.44000p  699.8035m  698.0215m 
   17.45000p  699.8052m  698.0336m 
   17.46000p  699.8070m  698.0457m 
   17.47000p  699.8088m  698.0578m 
   17.48000p  699.8105m  698.0699m 
   17.49000p  699.8123m  698.0820m 
   17.50000p  699.8141m  698.0941m 
   17.51000p  699.8158m  698.1062m 
   17.52000p  699.8176m  698.1183m 
   17.53000p  699.8194m  698.1304m 
   17.54000p  699.8211m  698.1425m 
   17.55000p  699.8229m  698.1546m 
   17.56000p  699.8247m  698.1667m 
   17.57000p  699.8264m  698.1789m 
   17.58000p  699.8282m  698.1910m 
   17.59000p  699.8300m  698.2031m 
   17.60000p  699.8317m  698.2152m 
   17.61000p  699.8335m  698.2273m 
   17.62000p  699.8353m  698.2394m 
   17.63000p  699.8370m  698.2515m 
   17.64000p  699.8388m  698.2636m 
   17.65000p  699.8406m  698.2757m 
   17.66000p  699.8423m  698.2878m 
   17.67000p  699.8441m  698.2999m 
   17.68000p  699.8459m  698.3120m 
   17.69000p  699.8477m  698.3241m 
   17.70000p  699.8494m  698.3362m 
   17.71000p  699.8512m  698.3483m 
   17.72000p  699.8530m  698.3605m 
   17.73000p  699.8547m  698.3726m 
   17.74000p  699.8565m  698.3847m 
   17.75000p  699.8583m  698.3968m 
   17.76000p  699.8600m  698.4089m 
   17.77000p  699.8618m  698.4210m 
   17.78000p  699.8636m  698.4331m 
   17.79000p  699.8653m  698.4452m 
   17.80000p  699.8671m  698.4573m 
   17.81000p  699.8689m  698.4694m 
   17.82000p  699.8706m  698.4815m 
   17.83000p  699.8724m  698.4936m 
   17.84000p  699.8742m  698.5057m 
   17.85000p  699.8759m  698.5178m 
   17.86000p  699.8777m  698.5300m 
   17.87000p  699.8795m  698.5421m 
   17.88000p  699.8812m  698.5542m 
   17.89000p  699.8830m  698.5663m 
   17.90000p  699.8848m  698.5784m 
   17.91000p  699.8865m  698.5905m 
   17.92000p  699.8883m  698.6026m 
   17.93000p  699.8901m  698.6147m 
   17.94000p  699.8919m  698.6268m 
   17.95000p  699.8936m  698.6389m 
   17.96000p  699.8954m  698.6510m 
   17.97000p  699.8972m  698.6631m 
   17.98000p  699.8989m  698.6752m 
   17.99000p  699.9007m  698.6873m 
   18.00000p  699.9025m  698.6994m 
   18.01000p  699.9042m  698.7116m 
   18.02000p  699.9060m  698.7237m 
   18.03000p  699.9078m  698.7358m 
   18.04000p  699.9095m  698.7479m 
   18.05000p  699.9113m  698.7600m 
   18.06000p  699.9131m  698.7721m 
   18.07000p  699.9148m  698.7842m 
   18.08000p  699.9166m  698.7963m 
   18.09000p  699.9184m  698.8084m 
   18.10000p  699.9201m  698.8205m 
   18.11000p  699.9219m  698.8326m 
   18.12000p  699.9237m  698.8447m 
   18.13000p  699.9254m  698.8568m 
   18.14000p  699.9272m  698.8689m 
   18.15000p  699.9290m  698.8811m 
   18.16000p  699.9307m  698.8932m 
   18.17000p  699.9325m  698.9053m 
   18.18000p  699.9343m  698.9174m 
   18.19000p  699.9361m  698.9295m 
   18.20000p  699.9378m  698.9416m 
   18.21000p  699.9396m  698.9537m 
   18.22000p  699.9414m  698.9658m 
   18.23000p  699.9431m  698.9779m 
   18.24000p  699.9449m  698.9900m 
   18.25000p  699.9467m  699.0021m 
   18.26000p  699.9484m  699.0142m 
   18.27000p  699.9502m  699.0263m 
   18.28000p  699.9520m  699.0384m 
   18.29000p  699.9537m  699.0506m 
   18.30000p  699.9555m  699.0627m 
   18.31000p  699.9573m  699.0748m 
   18.32000p  699.9590m  699.0869m 
   18.33000p  699.9608m  699.0990m 
   18.34000p  699.9626m  699.1111m 
   18.35000p  699.9643m  699.1232m 
   18.36000p  699.9661m  699.1353m 
   18.37000p  699.9679m  699.1474m 
   18.38000p  699.9696m  699.1595m 
   18.39000p  699.9714m  699.1716m 
   18.40000p  699.9732m  699.1837m 
   18.41000p  699.9750m  699.1958m 
   18.42000p  699.9767m  699.2079m 
   18.43000p  699.9785m  699.2200m 
   18.44000p  699.9803m  699.2322m 
   18.45000p  699.9820m  699.2443m 
   18.46000p  699.9838m  699.2564m 
   18.47000p  699.9856m  699.2685m 
   18.48000p  699.9873m  699.2806m 
   18.49000p  699.9891m  699.2927m 
   18.50000p  699.9906m  699.3029m 
   18.51000p  699.9906m  699.3040m 
   18.52000p  699.9907m  699.3050m 
   18.53000p  699.9907m  699.3061m 
   18.54000p  699.9908m  699.3071m 
   18.55000p  699.9909m  699.3082m 
   18.56000p  699.9909m  699.3092m 
   18.57000p  699.9910m  699.3103m 
   18.58000p  699.9910m  699.3114m 
   18.59000p  699.9911m  699.3124m 
   18.60000p  699.9911m  699.3135m 
   18.61000p  699.9912m  699.3145m 
   18.62000p  699.9913m  699.3156m 
   18.63000p  699.9913m  699.3166m 
   18.64000p  699.9914m  699.3177m 
   18.65000p  699.9914m  699.3187m 
   18.66000p  699.9915m  699.3198m 
   18.67000p  699.9915m  699.3208m 
   18.68000p  699.9916m  699.3219m 
   18.69000p  699.9917m  699.3229m 
   18.70000p  699.9917m  699.3240m 
   18.71000p  699.9918m  699.3251m 
   18.72000p  699.9918m  699.3261m 
   18.73000p  699.9919m  699.3272m 
   18.74000p  699.9919m  699.3282m 
   18.75000p  699.9920m  699.3293m 
   18.76000p  699.9921m  699.3303m 
   18.77000p  699.9921m  699.3314m 
   18.78000p  699.9922m  699.3324m 
   18.79000p  699.9922m  699.3335m 
   18.80000p  699.9923m  699.3345m 
   18.81000p  699.9923m  699.3356m 
   18.82000p  699.9924m  699.3367m 
   18.83000p  699.9925m  699.3377m 
   18.84000p  699.9925m  699.3388m 
   18.85000p  699.9926m  699.3398m 
   18.86000p  699.9926m  699.3409m 
   18.87000p  699.9927m  699.3419m 
   18.88000p  699.9927m  699.3430m 
   18.89000p  699.9928m  699.3440m 
   18.90000p  699.9929m  699.3451m 
   18.91000p  699.9929m  699.3461m 
   18.92000p  699.9930m  699.3472m 
   18.93000p  699.9930m  699.3483m 
   18.94000p  699.9931m  699.3493m 
   18.95000p  699.9931m  699.3504m 
   18.96000p  699.9932m  699.3514m 
   18.97000p  699.9933m  699.3525m 
   18.98000p  699.9933m  699.3535m 
   18.99000p  699.9934m  699.3546m 
   19.00000p  699.9934m  699.3556m 
   19.01000p  699.9935m  699.3567m 
[...]
   95.00000p  700.0002m   -3.4395u 
   95.01000p  700.0002m   -3.6060u 
   95.02000p  700.0002m   -3.7724u 
   95.03000p  700.0002m   -3.9389u 
   95.04000p  700.0002m   -4.1054u 
   95.05000p  700.0002m   -4.2719u 
   95.06000p  700.0001m   -4.4384u 
   95.07000p  700.0001m   -4.6049u 
   95.08000p  700.0001m   -4.7714u 
   95.09000p  700.0001m   -4.9378u 
   95.10000p  700.0001m   -5.1043u 
   95.11000p  700.0001m   -5.2708u 
   95.12000p  700.0001m   -5.4373u 
   95.13000p  700.0001m   -5.6038u 
   95.14000p  700.0001m   -5.7703u 
   95.15000p  700.0000m   -5.9368u 
   95.16000p  700.0000m   -6.1032u 
   95.17000p  700.0000m   -6.2697u 
   95.18000p  700.0000m   -6.4362u 
   95.19000p  700.0000m   -6.6027u 
   95.20000p  700.0000m   -6.7692u 
   95.21000p  700.0000m   -6.9357u 
   95.22000p  700.0000m   -7.1022u 
   95.23000p  699.9999m   -7.2686u 
   95.24000p  699.9999m   -7.4351u 
   95.25000p  699.9999m   -7.6016u 
   95.26000p  699.9999m   -7.7681u 
   95.27000p  699.9999m   -7.9346u 
   95.28000p  699.9999m   -8.1011u 
   95.29000p  699.9999m   -8.2676u 
   95.30000p  699.9999m   -8.4340u 
   95.31000p  699.9999m   -8.6005u 
   95.32000p  699.9998m   -8.7670u 
   95.33000p  699.9998m   -8.9335u 
   95.34000p  699.9998m   -9.1000u 
   95.35000p  699.9998m   -9.2665u 
   95.36000p  699.9998m   -9.4330u 
   95.37000p  699.9998m   -9.5994u 
   95.38000p  699.9998m   -9.7659u 
   95.39000p  699.9998m   -9.9324u 
   95.40000p  699.9997m  -10.0989u 
   95.41000p  699.9997m  -10.2654u 
   95.42000p  699.9997m  -10.4319u 
   95.43000p  699.9997m  -10.5984u 
   95.44000p  699.9997m  -10.7649u 
   95.45000p  699.9997m  -10.9313u 
   95.46000p  699.9997m  -11.0978u 
   95.47000p  699.9997m  -11.2643u 
   95.48000p  699.9997m  -11.4308u 
   95.49000p  699.9996m  -11.5973u 
   95.50000p  699.9996m  -11.7638u 
   95.51000p  699.9996m  -11.9303u 
   95.52000p  699.9996m  -12.0967u 
   95.53000p  699.9996m  -12.2632u 
   95.54000p  699.9996m  -12.4297u 
   95.55000p  699.9996m  -12.5962u 
   95.56000p  699.9996m  -12.7627u 
   95.57000p  699.9995m  -12.9292u 
   95.58000p  699.9995m  -13.0957u 
   95.59000p  699.9995m  -13.2621u 
   95.60000p  699.9995m  -13.4286u 
   95.61000p  699.9995m  -13.5951u 
   95.62000p  699.9995m  -13.7616u 
   95.63000p  699.9995m  -13.9281u 
   95.64000p  699.9995m  -14.0946u 
   95.65000p  699.9995m  -14.2611u 
   95.66000p  699.9994m  -14.4275u 
   95.67000p  699.9994m  -14.5940u 
   95.68000p  699.9994m  -14.7605u 
   95.69000p  699.9994m  -14.9270u 
   95.70000p  699.9994m  -15.0935u 
   95.71000p  699.9994m  -15.2600u 
   95.72000p  699.9994m  -15.4265u 
   95.73000p  699.9994m  -15.5929u 
   95.74000p  699.9993m  -15.7594u 
   95.75000p  699.9993m  -15.9259u 
   95.76000p  699.9993m  -16.0924u 
   95.77000p  699.9993m  -16.2589u 
   95.78000p  699.9993m  -16.4254u 
   95.79000p  699.9993m  -16.5919u 
   95.80000p  699.9993m  -16.7583u 
   95.81000p  699.9993m  -16.9248u 
   95.82000p  699.9993m  -17.0913u 
   95.83000p  699.9992m  -17.2578u 
   95.84000p  699.9992m  -17.4243u 
   95.85000p  699.9992m  -17.5908u 
   95.86000p  699.9992m  -17.7573u 
   95.87000p  699.9992m  -17.9237u 
   95.88000p  699.9992m  -18.0902u 
   95.89000p  699.9992m  -18.2567u 
   95.90000p  699.9992m  -18.4232u 
   95.91000p  699.9991m  -18.5897u 
   95.92000p  699.9991m  -18.7562u 
   95.93000p  699.9991m  -18.9227u 
   95.94000p  699.9991m  -19.0891u 
   95.95000p  699.9991m  -19.2556u 
   95.96000p  699.9991m  -19.4221u 
   95.97000p  699.9991m  -19.5886u 
   95.98000p  699.9991m  -19.7551u 
   95.99000p  699.9991m  -19.9216u 
   96.00000p  699.9990m  -20.0881u 
   96.01000p  699.9990m  -20.2545u 
   96.02000p  699.9990m  -20.4210u 
   96.03000p  699.9990m  -20.5875u 
   96.04000p  699.9990m  -20.7540u 
   96.05000p  699.9990m  -20.9205u 
   96.06000p  699.9990m  -21.0870u 
   96.07000p  699.9990m  -21.2535u 
   96.08000p  699.9989m  -21.4199u 
   96.09000p  699.9989m  -21.5864u 
   96.10000p  699.9989m  -21.7529u 
   96.11000p  699.9989m  -21.9194u 
   96.12000p  699.9989m  -22.0859u 
   96.13000p  699.9989m  -22.2524u 
   96.14000p  699.9989m  -22.4189u 
   96.15000p  699.9989m  -22.5854u 
   96.16000p  699.9988m  -22.7518u 
   96.17000p  699.9988m  -22.9183u 
   96.18000p  699.9988m  -23.0848u 
   96.19000p  699.9988m  -23.2513u 
   96.20000p  699.9988m  -23.4178u 
   96.21000p  699.9988m  -23.5843u 
   96.22000p  699.9988m  -23.7508u 
   96.23000p  699.9988m  -23.9172u 
   96.24000p  699.9988m  -24.0837u 
   96.25000p  699.9987m  -24.2502u 
   96.26000p  699.9987m  -24.4167u 
   96.27000p  699.9987m  -24.5832u 
   96.28000p  699.9987m  -24.7497u 
   96.29000p  699.9987m  -24.9162u 
   96.30000p  699.9987m  -25.0826u 
   96.31000p  699.9987m  -25.2491u 
   96.32000p  699.9987m  -25.4156u 
   96.33000p  699.9986m  -25.5821u 
   96.34000p  699.9986m  -25.7486u 
   96.35000p  699.9986m  -25.9151u 
   96.36000p  699.9986m  -26.0816u 
   96.37000p  699.9986m  -26.2480u 
   96.38000p  699.9986m  -26.4145u 
   96.39000p  699.9986m  -26.5810u 
   96.40000p  699.9986m  -26.7475u 
   96.41000p  699.9986m  -26.9140u 
   96.42000p  699.9985m  -27.0805u 
   96.43000p  699.9985m  -27.2470u 
   96.44000p  699.9985m  -27.4134u 
   96.45000p  699.9985m  -27.5799u 
   96.46000p  699.9985m  -27.7464u 
   96.47000p  699.9985m  -27.9129u 
   96.48000p  699.9985m  -28.0794u 
   96.49000p  699.9985m  -28.2459u 
   96.50000p  699.9984m  -28.4124u 
   96.51000p  699.9984m  -28.5788u 
   96.52000p  699.9984m  -28.7453u 
   96.53000p  699.9984m  -28.9118u 
   96.54000p  699.9984m  -29.0783u 
   96.55000p  699.9984m  -29.2448u 
   96.56000p  699.9984m  -29.4113u 
   96.57000p  699.9984m  -29.5778u 
   96.58000p  699.9984m  -29.7442u 
   96.59000p  699.9983m  -29.9107u 
   96.60000p  699.9983m  -30.0772u 
   96.61000p  699.9983m  -30.2437u 
   96.62000p  699.9983m  -30.4102u 
   96.63000p  699.9983m  -30.5767u 
   96.64000p  699.9983m  -30.7432u 
   96.65000p  699.9983m  -30.9096u 
   96.66000p  699.9983m  -31.0761u 
   96.67000p  699.9982m  -31.2426u 
   96.68000p  699.9982m  -31.4091u 
   96.69000p  699.9982m  -31.5756u 
   96.70000p  699.9982m  -31.7421u 
   96.71000p  699.9982m  -31.9086u 
   96.72000p  699.9982m  -32.0750u 
   96.73000p  699.9982m  -32.2415u 
   96.74000p  699.9982m  -32.4080u 
   96.75000p  699.9982m  -32.5745u 
   96.76000p  699.9981m  -32.7410u 
   96.77000p  699.9981m  -32.9075u 
   96.78000p  699.9981m  -33.0740u 
   96.79000p  699.9981m  -33.2404u 
   96.80000p  699.9981m  -33.4069u 
   96.81000p  699.9981m  -33.5734u 
   96.82000p  699.9981m  -33.7399u 
   96.83000p  699.9981m  -33.9064u 
   96.84000p  699.9980m  -34.0729u 
   96.85000p  699.9980m  -34.2394u 
   96.86000p  699.9980m  -34.4059u 
   96.87000p  699.9980m  -34.5723u 
   96.88000p  699.9980m  -34.7388u 
   96.89000p  699.9980m  -34.9053u 
   96.90000p  699.9980m  -35.0718u 
   96.91000p  699.9980m  -35.2383u 
   96.92000p  699.9980m  -35.4048u 
   96.93000p  699.9979m  -35.5713u 
   96.94000p  699.9979m  -35.7377u 
   96.95000p  699.9979m  -35.9042u 
   96.96000p  699.9979m  -36.0707u 
   96.97000p  699.9979m  -36.2372u 
   96.98000p  699.9979m  -36.4037u 
   96.99000p  699.9979m  -36.5702u 
   97.00000p  699.9979m  -36.7367u 
   97.01000p  699.9978m  -36.9031u 
   97.02000p  699.9978m  -37.0696u 
   97.03000p  699.9978m  -37.2361u 
   97.04000p  699.9978m  -37.4026u 
   97.05000p  699.9978m  -37.5691u 
   97.06000p  699.9978m  -37.7356u 
   97.07000p  699.9978m  -37.9021u 
   97.08000p  699.9978m  -38.0685u 
   97.09000p  699.9978m  -38.2350u 
   97.10000p  699.9977m  -38.4015u 
   97.11000p  699.9977m  -38.5680u 
   97.12000p  699.9977m  -38.7345u 
   97.13000p  699.9977m  -38.6928u 
   97.14000p  699.9977m  -38.4400u 
   97.15000p  699.9977m  -38.1873u 
   97.16000p  699.9977m  -37.9345u 
   97.17000p  699.9978m  -37.6817u 
   97.18000p  699.9978m  -37.4290u 
   97.19000p  699.9978m  -37.1762u 
   97.20000p  699.9978m  -36.9235u 
   97.21000p  699.9978m  -36.6707u 
   97.22000p  699.9978m  -36.4180u 
   97.23000p  699.9978m  -36.1652u 
   97.24000p  699.9978m  -35.9124u 
   97.25000p  699.9978m  -35.6597u 
   97.26000p  699.9978m  -35.4069u 
   97.27000p  699.9979m  -35.1542u 
   97.28000p  699.9979m  -34.9014u 
   97.29000p  699.9979m  -34.6486u 
   97.30000p  699.9979m  -34.3959u 
   97.31000p  699.9979m  -34.1431u 
   97.32000p  699.9979m  -33.8904u 
   97.33000p  699.9979m  -33.6376u 
   97.34000p  699.9979m  -33.3849u 
   97.35000p  699.9979m  -33.1321u 
   97.36000p  699.9979m  -32.8793u 
   97.37000p  699.9980m  -32.6266u 
   97.38000p  699.9980m  -32.3738u 
   97.39000p  699.9980m  -32.1211u 
   97.40000p  699.9980m  -31.8683u 
   97.41000p  699.9980m  -31.6156u 
   97.42000p  699.9980m  -31.3628u 
   97.43000p  699.9980m  -31.1100u 
   97.44000p  699.9980m  -30.8573u 
   97.45000p  699.9980m  -30.6045u 
   97.46000p  699.9980m  -30.3518u 
   97.47000p  699.9981m  -30.0990u 
   97.48000p  699.9981m  -29.8463u 
   97.49000p  699.9981m  -29.5935u 
   97.50000p  699.9981m  -29.3407u 
   97.51000p  699.9981m  -29.0880u 
   97.52000p  699.9981m  -28.8352u 
   97.53000p  699.9981m  -28.5825u 
   97.54000p  699.9981m  -28.3297u 
   97.55000p  699.9981m  -28.0769u 
   97.56000p  699.9981m  -27.8242u 
   97.57000p  699.9982m  -27.5714u 
   97.58000p  699.9982m  -27.3187u 
   97.59000p  699.9982m  -27.0659u 
   97.60000p  699.9982m  -26.8132u 
   97.61000p  699.9982m  -26.5604u 
   97.62000p  699.9982m  -26.3076u 
   97.63000p  699.9982m  -26.0549u 
   97.64000p  699.9982m  -25.8021u 
   97.65000p  699.9982m  -25.5494u 
   97.66000p  699.9982m  -25.2966u 
   97.67000p  699.9983m  -25.0439u 
   97.68000p  699.9983m  -24.7911u 
   97.69000p  699.9983m  -24.5383u 
   97.70000p  699.9983m  -24.2856u 
   97.71000p  699.9983m  -24.0328u 
   97.72000p  699.9983m  -23.7801u 
   97.73000p  699.9983m  -23.5273u 
   97.74000p  699.9983m  -23.2745u 
   97.75000p  699.9983m  -23.0218u 
   97.76000p  699.9983m  -22.7690u 
   97.77000p  699.9983m  -22.5163u 
   97.78000p  699.9984m  -22.2635u 
   97.79000p  699.9984m  -22.0108u 
   97.80000p  699.9984m  -21.7580u 
   97.81000p  699.9984m  -21.5052u 
   97.82000p  699.9984m  -21.2525u 
   97.83000p  699.9984m  -20.9997u 
   97.84000p  699.9984m  -20.7470u 
   97.85000p  699.9984m  -20.4942u 
   97.86000p  699.9984m  -20.2415u 
   97.87000p  699.9984m  -19.9887u 
   97.88000p  699.9985m  -19.7359u 
   97.89000p  699.9985m  -19.4832u 
   97.90000p  699.9985m  -19.2304u 
   97.91000p  699.9985m  -18.9777u 
   97.92000p  699.9985m  -18.7249u 
   97.93000p  699.9985m  -18.4722u 
   97.94000p  699.9985m  -18.2194u 
   97.95000p  699.9985m  -17.9666u 
   97.96000p  699.9985m  -17.7139u 
   97.97000p  699.9985m  -17.4611u 
   97.98000p  699.9986m  -17.2084u 
   97.99000p  699.9986m  -16.9556u 
   98.00000p  699.9986m  -16.7028u 
   98.01000p  699.9986m  -16.4501u 
   98.02000p  699.9986m  -16.1973u 
   98.03000p  699.9986m  -15.9446u 
   98.04000p  699.9986m  -15.6918u 
   98.05000p  699.9986m  -15.4391u 
   98.06000p  699.9986m  -15.1863u 
   98.07000p  699.9986m  -14.9335u 
   98.08000p  699.9987m  -14.6808u 
   98.09000p  699.9987m  -14.4280u 
   98.10000p  699.9987m  -14.1753u 
   98.11000p  699.9987m  -13.9225u 
   98.12000p  699.9987m  -13.6698u 
   98.13000p  699.9987m  -13.4170u 
   98.14000p  699.9987m  -13.1642u 
   98.15000p  699.9987m  -12.9115u 
   98.16000p  699.9987m  -12.6587u 
   98.17000p  699.9987m  -12.4060u 
   98.18000p  699.9988m  -12.1532u 
   98.19000p  699.9988m  -11.9004u 
   98.20000p  699.9988m  -11.6477u 
   98.21000p  699.9988m  -11.3949u 
   98.22000p  699.9988m  -11.1422u 
   98.23000p  699.9988m  -10.8894u 
   98.24000p  699.9988m  -10.6367u 
   98.25000p  699.9988m  -10.3839u 
   98.26000p  699.9988m  -10.1311u 
   98.27000p  699.9988m   -9.8784u 
   98.28000p  699.9989m   -9.6256u 
   98.29000p  699.9989m   -9.3729u 
   98.30000p  699.9989m   -9.1201u 
   98.31000p  699.9989m   -8.8674u 
   98.32000p  699.9989m   -8.6146u 
   98.33000p  699.9989m   -8.3618u 
   98.34000p  699.9989m   -8.1091u 
   98.35000p  699.9989m   -7.8563u 
   98.36000p  699.9989m   -7.6036u 
   98.37000p  699.9989m   -7.3508u 
   98.38000p  699.9990m   -7.0980u 
   98.39000p  699.9990m   -6.8453u 
   98.40000p  699.9990m   -6.5925u 
   98.41000p  699.9990m   -6.3398u 
   98.42000p  699.9990m   -6.0870u 
   98.43000p  699.9990m   -5.8343u 
   98.44000p  699.9990m   -5.5815u 
   98.45000p  699.9990m   -5.3287u 
   98.46000p  699.9990m   -5.0760u 
   98.47000p  699.9990m   -4.8232u 
   98.48000p  699.9991m   -4.5705u 
   98.49000p  699.9991m   -4.3177u 
   98.50000p  699.9991m   -4.0650u 
   98.51000p  699.9991m   -3.8122u 
   98.52000p  699.9991m   -3.5594u 
   98.53000p  699.9991m   -3.3067u 
   98.54000p  699.9991m   -3.0539u 
   98.55000p  699.9991m   -2.8012u 
   98.56000p  699.9991m   -2.5484u 
   98.57000p  699.9991m   -2.2957u 
   98.58000p  699.9992m   -2.0429u 
   98.59000p  699.9992m   -1.7901u 
   98.60000p  699.9992m   -1.5374u 
   98.61000p  699.9992m   -1.2846u 
   98.62000p  699.9992m   -1.0319u 
   98.63000p  699.9992m -779.1044n 
   98.64000p  699.9992m -526.3466n 
   98.65000p  699.9992m -273.5888n 
   98.66000p  699.9992m  -20.8310n 
   98.67000p  699.9992m  231.9268n 
   98.68000p  699.9993m  484.6846n 
   98.69000p  699.9993m  737.4424n 
   98.70000p  699.9993m  990.2002n 
   98.71000p  699.9993m    1.2430u 
   98.72000p  699.9993m    1.4957u 
   98.73000p  699.9993m    1.7485u 
   98.74000p  699.9993m    2.0012u 
   98.75000p  699.9993m    2.2540u 
   98.76000p  699.9993m    2.5067u 
   98.77000p  699.9993m    2.7595u 
   98.78000p  699.9994m    3.0123u 
   98.79000p  699.9994m    3.2650u 
   98.80000p  699.9994m    3.5178u 
   98.81000p  699.9994m    3.7705u 
   98.82000p  699.9994m    4.0233u 
   98.83000p  699.9994m    4.2761u 
   98.84000p  699.9994m    4.5288u 
   98.85000p  699.9994m    4.7816u 
   98.86000p  699.9994m    5.0343u 
   98.87000p  699.9994m    5.2871u 
   98.88000p  699.9994m    5.5398u 
   98.89000p  699.9995m    5.7926u 
   98.90000p  699.9995m    6.0454u 
   98.91000p  699.9995m    6.2981u 
   98.92000p  699.9995m    6.5509u 
   98.93000p  699.9995m    6.8036u 
   98.94000p  699.9995m    7.0564u 
   98.95000p  699.9995m    7.3091u 
   98.96000p  699.9995m    7.5619u 
   98.97000p  699.9995m    7.8147u 
   98.98000p  699.9995m    8.0674u 
   98.99000p  699.9996m    8.3202u 
   99.00000p  699.9996m    8.5729u 
   99.01000p  699.9996m    8.8257u 
   99.02000p  699.9996m    9.0784u 
   99.03000p  699.9996m    9.3312u 
   99.04000p  699.9996m    9.5840u 
   99.05000p  699.9996m    9.8367u 
   99.06000p  699.9996m   10.0895u 
   99.07000p  699.9996m   10.3422u 
   99.08000p  699.9996m   10.5950u 
   99.09000p  699.9997m   10.8478u 
   99.10000p  699.9997m   11.1005u 
   99.11000p  699.9997m   11.3533u 
   99.12000p  699.9997m   11.6060u 
   99.13000p  699.9997m   11.8588u 
   99.14000p  699.9997m   12.1115u 
   99.15000p  699.9997m   12.3643u 
   99.16000p  699.9997m   12.6171u 
   99.17000p  699.9997m   12.8698u 
   99.18000p  699.9997m   13.1226u 
   99.19000p  699.9998m   13.3753u 
   99.20000p  699.9998m   13.6281u 
   99.21000p  699.9998m   13.8808u 
   99.22000p  699.9998m   14.1336u 
   99.23000p  699.9998m   14.3864u 
   99.24000p  699.9998m   14.6391u 
   99.25000p  699.9998m   14.8919u 
   99.26000p  699.9998m   15.1446u 
   99.27000p  699.9998m   15.3974u 
   99.28000p  699.9998m   15.6502u 
   99.29000p  699.9999m   15.9029u 
   99.30000p  699.9999m   16.1557u 
   99.31000p  699.9999m   16.4084u 
   99.32000p  699.9999m   16.6612u 
   99.33000p  699.9999m   16.9139u 
   99.34000p  699.9999m   17.1667u 
   99.35000p  699.9999m   17.4195u 
   99.36000p  699.9999m   17.6722u 
   99.37000p  699.9999m   17.9250u 
   99.38000p  699.9999m   18.1777u 
   99.39000p  700.0000m   18.4305u 
   99.40000p  700.0000m   18.6832u 
   99.41000p  700.0000m   18.9360u 
   99.42000p  700.0000m   19.1888u 
   99.43000p  700.0000m   19.4415u 
   99.44000p  700.0000m   19.6943u 
   99.45000p  700.0000m   19.9470u 
   99.46000p  700.0000m   20.1998u 
   99.47000p  700.0000m   20.4526u 
   99.48000p  700.0000m   20.7053u 
   99.49000p  700.0001m   20.9581u 
   99.50000p  700.0001m   21.2108u 
   99.51000p  700.0001m   21.4636u 
   99.52000p  700.0001m   21.7163u 
   99.53000p  700.0001m   21.9691u 
   99.54000p  700.0001m   22.2219u 
   99.55000p  700.0001m   22.4746u 
   99.56000p  700.0001m   22.7274u 
   99.57000p  700.0001m   22.9801u 
   99.58000p  700.0001m   23.2329u 
   99.59000p  700.0002m   23.4856u 
   99.60000p  700.0002m   23.7384u 
   99.61000p  700.0002m   23.9912u 
   99.62000p  700.0002m   24.2439u 
   99.63000p  700.0002m   24.4967u 
   99.64000p  700.0002m   24.7494u 
   99.65000p  700.0002m   25.0022u 
   99.66000p  700.0002m   25.2549u 
   99.67000p  700.0002m   25.5077u 
   99.68000p  700.0002m   25.7605u 
   99.69000p  700.0003m   26.0132u 
   99.70000p  700.0003m   26.2660u 
   99.71000p  700.0003m   26.5187u 
   99.72000p  700.0003m   26.7715u 
   99.73000p  700.0003m   27.0243u 
   99.74000p  700.0003m   27.2770u 
   99.75000p  700.0003m   27.5298u 
   99.76000p  700.0003m   27.7825u 
   99.77000p  700.0003m   28.0353u 
   99.78000p  700.0003m   28.2880u 
   99.79000p  700.0004m   28.5408u 
   99.80000p  700.0004m   28.7936u 
   99.81000p  700.0004m   29.0463u 
   99.82000p  700.0004m   29.2991u 
   99.83000p  700.0004m   29.5518u 
   99.84000p  700.0004m   29.8046u 
   99.85000p  700.0004m   30.0573u 
   99.86000p  700.0004m   30.3101u 
   99.87000p  700.0004m   30.5629u 
   99.88000p  700.0004m   30.8156u 
   99.89000p  700.0005m   31.0684u 
   99.90000p  700.0005m   31.3211u 
   99.91000p  700.0005m   31.5739u 
   99.92000p  700.0005m   31.8267u 
   99.93000p  700.0005m   32.0794u 
   99.94000p  700.0005m   32.3322u 
   99.95000p  700.0005m   32.5849u 
   99.96000p  700.0005m   32.8377u 
   99.97000p  700.0005m   33.0904u 
   99.98000p  700.0005m   33.3432u 
   99.99000p  700.0006m   33.5960u 
  100.00000p  700.0006m   33.8487u 
y

          ***** job concluded
 ******  
 * eda yan

 ****** job statistics summary tnom=  25.000 temp=  25.000 ******
  
 ******  Machine Information  ******
 CPU:
 model name	: Intel(R) Xeon(R) CPU E7- 8837  @ 2.67GHz
 cpu MHz	: 2663.941
  
 OS:
 Linux version 3.16.0-10-amd64 (debian-kernel@lists.debian.org) (gcc version 4.9.2 (Debian 4.9.2-10+deb8u2) ) #1 SMP Debian 3.16.81-1 (2020-01-17)


  ******  HSPICE Threads Information  ******

  Command Line Threads Count :     1
  Available CPU Count        :    32
  Actual Threads Count       :     1


  ******  Circuit Statistics  ******
  # nodes       =      68 # elements   =      33
  # resistors   =       0 # capacitors =       2 # inductors   =       0
  # mutual_inds =       0 # vccs       =       0 # vcvs        =       0
  # cccs        =       0 # ccvs       =       0 # volt_srcs   =       7
  # curr_srcs   =       0 # diodes     =       0 # bjts        =       0
  # jfets       =       0 # mosfets    =      24 # U elements  =       0
  # T elements  =       0 # W elements =       0 # B elements  =       0
  # S elements  =       0 # P elements =       0 # va device   =       0
  # vector_srcs =       0 # N elements =       0


  ******  Runtime Statistics (seconds)  ******

  analysis           time    # points   tot. iter  conv.iter
  op point           0.03           1           6
  transient          0.24       10001         274          86 rev=        10
  readin             0.02
  errchk             0.02
  setup              0.00
  output             0.00


           peak memory used        312.56 megabytes
           total cpu time            0.52 seconds
           total elapsed time        0.36 seconds
           job started at     16:52:57 05/07/2020
           job ended   at     16:52:58 05/07/2020



>info:         ***** hspice job concluded
 lic: Release hspice token(s) 
 lic: total license checkout elapse time:        0.07(s)
