Using: /opt/synopsys/hspice/O-2018.09-SP2-2/hspice/linux64/hspice c17.sp
 ****** HSPICE -- O-2018.09-SP2-2 linux64 (May  9 2019) ******                  
  Copyright (c) 1986 - 2020 by Synopsys, Inc. All Rights Reserved.              
  This software and the associated documentation are proprietary
  to Synopsys, Inc. This software may only be used in accordance
  with the terms and conditions of a written license agreement with
  Synopsys, Inc. All other use, reproduction, or distribution of
  this software is strictly prohibited.
  Input File: c17.sp                                                            
  Command line options: /opt/synopsys/hspice/O-2018.09-SP2-2/hspice/linux64/hspice c17.sp
  Start time: Tue May 12 02:02:53 2020
 lic:  
 lic: FLEXlm: SDK_11.7.3 
 lic: USER:   mitsushij            HOSTNAME: sahand 
 lic: HOSTID: "80c16e72eecb"       PID:      75992 
 lic: Using FLEXlm license file: 
 lic: 1720@ics-lic2.usc.edu 
 lic: Checkout 1 hspice 
 lic: License/Maintenance for hspice will expire on 30-jun-2021/2019.06 
 lic: 1(in_use)/50(total) FLOATING license(s) on SERVER 1720@ics-lic2.usc.edu 
 lic:   
1****** HSPICE -- O-2018.09-SP2-2 linux64 (May  9 2019) ******                  
 ******  
 * eda yan

 ****** circuit name directory
 circuit number to circuit name directory
   number circuitname                     definition         multiplier
        0 main circuit
        1 xnand2_1.                       nand2              1.00 
        2 xnand2_2.                       nand2              1.00 
        3 xnand2_3.                       nand2              1.00 
        4 xnand2_4.                       nand2              1.00 
        5 xnand2_5.                       nand2              1.00 
        6 xnand2_6.                       nand2              1.00 
  **info** (c17.sp:24) DC voltage reset to initial transient source value in source 0:vn1. new dc=0.0000D+00
  **warning** (nmos:mn1 (./gate_inventory_gen.sp:18)) Warning:  Acde = 0.231197 may be too small in BSIM4 model with w=3.2e-08 l=1.6e-08.
  

  **warning** the following singular supplies were terminated to 1 meg resistor 
          supply       node1            node2
(c17.sp:10)vlo                     0:lo               defined in subckt 0                     0:0                defined in subckt 0               
      

Element variations(Local):   element              parameter
 **info** set option symb=1 internally to help for convergence.
 *****************************************************************
 ******  option summary
 ******
 runlvl  = 3         bypass  = 2.0000    
 **info** dc convergence successful at Newton-Raphson method 
 ******  
 * eda yan

 ****** operating point information tnom=  25.000 temp=  25.000 ******
 ****** operating point status is all       simulation time is     0.     
    node    =voltage      node    =voltage      node    =voltage

 +0:hi      = 700.0000m 0:lo      =   0.      0:n1      =   0.     
 +0:n10     = 699.9985m 0:n11     = 699.9985m 0:n16     = 699.7754m
 +0:n19     = 699.9518m 0:n2      =   0.      0:n22     = 425.4323u
 +0:n23     = 425.6903u 0:n3      =   0.      0:n6      =   0.     
 +0:n7      =   0.      1:n1      = 114.8070m 2:n1      = 114.8070m
 +3:n1      =  84.9180u 4:n1      = 504.3631m 5:n1      = 212.7914u
 +6:n1      = 212.8560u


 **** voltage sources

 subckt                                                                    
 element  0:vhi      0:vlo      0:vn1      0:vn2      0:vn3      0:vn6     
  volts    700.0000m    0.         0.         0.         0.         0.     
  current  -65.5073n    0.        14.5175p   14.2479p   14.9911p  473.5385f
  power     45.8551n    0.         0.         0.         0.         0.     

 subckt             
 element  0:vn7     
  volts      0.     
  current    5.7060p
  power      0.     

     total voltage source power dissipation=   45.8551n       watts




 **** mosfets


 subckt   xnand2_1   xnand2_1   xnand2_1   xnand2_1   xnand2_2   xnand2_2  
 element  1:mp2      1:mp1      1:mn1      1:mn2      2:mp2      2:mp1     
 model    0:pmos     0:pmos     0:nmos     0:nmos     0:pmos     0:pmos    
 region   Linear     Linear     Cutoff     Cutoff     Linear     Linear    
  id       -72.3004p  -72.3004p  109.0538p  108.3019p  -72.3372p  -72.3372p
  ibs     -4.040e-25 -4.040e-25 -114.8095f  1.169e-25 -4.040e-25 -4.040e-25
  ibd        2.1433a    2.1433a -709.9985f -124.6924f    2.1444a    2.1444a
  vgs     -700.0000m -700.0000m -114.8070m    0.      -700.0000m -700.0000m
  vds       -1.5428u   -1.5428u  585.1915m  114.8070m   -1.5436u   -1.5436u
  vbs        0.         0.      -114.8070m    0.         0.         0.     
  vth     -394.7685m -394.7685m  312.2149m  419.4744m -394.7685m -394.7685m
  vdsat   -294.2859m -294.2859m   41.6332m   42.7304m -294.2859m -294.2859m
  vod     -305.2315m -305.2315m -427.0219m -419.4744m -305.2315m -305.2315m
  beta     201.1169u  201.1169u    2.0841m    1.6250m  201.1169u  201.1169u
  gam eff  400.0000m  400.0000m  400.0000m  400.0000m  400.0000m  400.0000m
  gm       170.4247p  170.4247p    2.8621n    2.7858n  170.5114p  170.5114p
  gds       46.8618u   46.8618u  893.7207p  884.3711p   46.8618u   46.8618u
  gmb       43.7102p   43.7102p  674.8890p  708.2593p   43.7324p   43.7324p
  cdtot     32.2976a   32.2976a   18.2431a   22.1624a   32.2976a   32.2976a
  cgtot     24.9837a   24.9837a   13.0450a   16.0003a   24.9837a   24.9837a
  cstot     35.5210a   35.5210a   31.4088a   33.3260a   35.5210a   35.5210a
  cbtot     42.8408a   42.8408a   39.5494a   42.4307a   42.8408a   42.8408a
  cgs       14.5078a   14.5078a    6.7518a    7.7773a   14.5078a   14.5078a
  cgd       10.0562a   10.0562a    4.8220a    6.7517a   10.0562a   10.0562a



 subckt   xnand2_2   xnand2_2   xnand2_3   xnand2_3   xnand2_3   xnand2_3  
 element  2:mn1      2:mn2      3:mp2      3:mp1      3:mn1      3:mn2     
 model    0:nmos     0:nmos     0:pmos     0:pmos     0:nmos     0:nmos    
 region   Cutoff     Cutoff     Subth      Linear     Subth      Linear    
  id       109.0538p  108.3019p -118.2927f  -10.5229n   10.4667n   10.4770n
  ibs     -114.8095f  1.169e-25 -1.110e-28 -4.047e-25  -84.9264a  3.092e-25
  ibd     -709.9985f -124.6924f  311.6017a  311.6017a -709.7754f -117.9159a
  vgs     -114.8070m    0.        -1.5436u -700.0000m  -84.9180u  699.9985m
  vds      585.1915m  114.8070m -224.5726u -224.5726u  699.6905m   84.9180u
  vbs     -114.8070m    0.         0.         0.       -84.9180u    0.     
  vth      312.2149m  419.4744m -394.6967m -394.6967m  260.2480m  450.7090m
  vdsat     41.6332m   42.7304m  -47.2362m -294.3379m   41.1980m  208.6141m
  vod     -427.0219m -419.4744m  394.6951m -305.3033m -260.3329m  249.2894m
  beta       2.0841m    1.6250m  184.4803u  201.1340u    2.3526m    1.2071m
  gam eff  400.0000m  400.0000m  400.0000m  400.0000m  400.0000m  400.0000m
  gm         2.8621n    2.7858n    3.1967p   24.8058n  259.0929n   15.8362n
  gds      893.7207p  884.3711p  526.4469p   46.8528u   85.4228n  123.3661u
  gmb      674.8890p  708.2593p  720.9942f    6.3617n   58.6365n    4.6336n
  cdtot     18.2431a   22.1624a   23.7173a   32.2706a   18.2438a   32.4765a
  cgtot     13.0450a   16.0003a   16.9081a   24.9832a   14.0707a   25.0689a
  cstot     31.4088a   33.3260a   33.3013a   35.5360a   33.3253a   35.4710a
  cbtot     39.5494a   42.4307a   42.9207a   42.8389a   40.4411a   42.8830a
  cgs        6.7518a    7.7773a    7.7525a   14.5139a    7.7776a   14.4114a
  cgd        4.8220a    6.7517a    7.7505a   10.0495a    4.8220a   10.2928a



 subckt   xnand2_4   xnand2_4   xnand2_4   xnand2_4   xnand2_5   xnand2_5  
 element  4:mp2      4:mp1      4:mn1      4:mn2      5:mp2      5:mp1     
 model    0:pmos     0:pmos     0:nmos     0:nmos     0:pmos     0:pmos    
 region   Linear     Subth      Subth      Subth      Subth      Subth     
  id        -2.2585n  -25.3978f    2.2370n    2.2305n  -13.1404n  -13.0683n
  ibs     -4.043e-25    0.      -504.3657f  4.823e-25 -6.655e-25 -6.655e-25
  ibd       66.9363a   66.9363a -709.9518f -514.3631f  709.5746f  709.5746f
  vgs     -700.0000m   -1.5436u  195.6353m    0.      -224.5726u   -1.5428u
  vds      -48.1950u  -48.1950u  195.5887m  504.3631m -699.5746m -699.5746m
  vbs        0.         0.      -504.3631m    0.         0.         0.     
  vth     -394.7535m -394.7535m  481.3196m  313.4126m -169.3213m -169.3213m
  vdsat   -294.2968m  -47.2364m   43.1289m   41.6854m  -47.4609m  -47.4551m
  vod     -305.2465m  394.7520m -285.6843m -313.4126m  169.0967m  169.3197m
  beta     201.1205u  184.4605u    1.4141m    2.0781m  304.7957u  304.7939u
  gam eff  400.0000m  400.0000m  400.0000m  400.0000m  400.0000m  400.0000m
  gm         5.3237n  686.3504f   59.9760n   56.3924n  324.2666n  322.5529n
  gds       46.8599u  526.9161p   18.1612n   17.2752n  128.8555n  128.1705n
  gmb        1.3654n  154.8113f   10.6553n   13.2782n   63.2486n   62.9226n
  cdtot     32.2920a   23.7198a   21.1988a   19.0388a   18.2193a   18.2191a
  cgtot     24.9836a   16.9097a   17.9575a   14.3174a   13.9616a   13.9595a
  cstot     35.5241a   33.3013a   31.4210a   33.3262a   33.3084a   33.3064a
  cbtot     42.8404a   42.9217a   36.8844a   40.9902a   40.3763a   40.3765a
  cgs       14.5091a    7.7525a    9.0690a    7.7775a    7.7610a    7.7590a
  cgd       10.0548a    7.7520a    7.7776a    5.0686a    4.7964a    4.7963a



 subckt   xnand2_5   xnand2_5   xnand2_6   xnand2_6   xnand2_6   xnand2_6  
 element  5:mn1      5:mn2      6:mp2      6:mp1      6:mn1      6:mn2     
 model    0:nmos     0:nmos     0:pmos     0:pmos     0:nmos     0:nmos    
 region   Linear     Linear     Subth      Subth      Linear     Linear    
  id        26.2205n   26.2411n  -13.0833n  -13.1404n   26.2354n   26.2561n
  ibs     -212.8123a  3.083e-25 -6.655e-25 -6.655e-25 -212.8769a  3.093e-25
  ibd     -589.6592a -295.2739a  709.5743f  709.5743f -590.0160a -295.3634a
  vgs      699.7857m  699.7754m  -48.1950u -224.5726u  699.5626m  699.9518m
  vds      212.6409u  212.7914u -699.5743m -699.5743m  212.8343u  212.8560u
  vbs     -212.7914u    0.         0.         0.      -212.8560u    0.     
  vth      450.7140m  450.6742m -169.3214m -169.3214m  450.7140m  450.6742m
  vdsat    208.4750m  208.4911m  -47.4563m  -47.4609m  208.3316m  208.6046m
  vod      249.0717m  249.1012m  169.2732m  169.0968m  248.8486m  249.2776m
  beta       1.2073m    1.2074m  304.7942u  304.7956u    1.2076m    1.2072m
  gam eff  400.0000m  400.0000m  400.0000m  400.0000m  400.0000m  400.0000m
  gm        39.7145n   39.7363n  322.9099n  324.2658n   39.7974n   39.7115n
  gds      123.2783u  123.2879u  128.3132n  128.8552n  123.2365u  123.3208u
  gmb       11.6118n   11.6201n   62.9905n   63.2484n   11.6312n   11.6166n
  cdtot     32.4512a   32.4527a   18.2191a   18.2193a   32.4477a   32.4554a
  cgtot     25.0676a   25.0677a   13.9600a   13.9616a   25.0668a   25.0683a
  cstot     35.4816a   35.4833a   33.3068a   33.3084a   35.4828a   35.4824a
  cbtot     42.8788a   42.8819a   40.3764a   40.3763a   42.8788a   42.8819a
  cgs       14.4157a   14.4157a    7.7594a    7.7610a   14.4154a   14.4159a
  cgd       10.2870a   10.2871a    4.7963a    4.7964a   10.2863a   10.2876a



 ******
 * eda yan

 ****** transient analysis tnom=  25.000 temp=  25.000 ******
x

 time         voltage    voltage   
             n22        n23        
    0.        425.4323u  425.6903u 
  100.00000f  425.4323u  425.6903u 
  200.00000f  425.4323u  425.6903u 
  300.00000f  425.4323u  425.6903u 
  400.00000f  425.4323u  425.6903u 
  500.00000f  425.4323u  425.6903u 
  600.00000f  425.4323u  425.6903u 
  700.00000f  425.4323u  425.6903u 
  800.00000f  425.4323u  425.6903u 
  900.00000f  425.4323u  425.6903u 
    1.00000p  425.4323u  425.6903u 
    1.10000p  486.6416u  469.3156u 
    1.20000p  547.8509u  512.9410u 
    1.30000p  609.0601u  556.5663u 
    1.40000p  670.2694u  600.1916u 
    1.50000p  731.4787u  643.8169u 
    1.60000p  792.6880u  687.4422u 
    1.70000p  853.8973u  731.0675u 
    1.80000p  915.1066u  774.6928u 
    1.90000p  976.3159u  818.3182u 
    2.00000p    1.0375m  861.9435u 
    2.10000p    1.0898m  901.9290u 
    2.20000p    1.1421m  941.9146u 
    2.30000p    1.1945m  981.9002u 
    2.40000p    1.2325m    1.0127m 
    2.50000p    1.2512m    1.0310m 
    2.60000p    1.2698m    1.0493m 
    2.70000p    1.2884m    1.0676m 
    2.80000p    1.3071m    1.0859m 
    2.90000p    1.3257m    1.1042m 
    3.00000p    1.3443m    1.1224m 
    3.10000p    1.3629m    1.1407m 
    3.20000p    1.3816m    1.1590m 
    3.30000p    1.4002m    1.1773m 
    3.40000p    1.4188m    1.1956m 
    3.50000p    1.4346m    1.2103m 
    3.60000p    1.4266m    1.1954m 
    3.70000p    1.4186m    1.1806m 
    3.80000p    1.4106m    1.1657m 
    3.90000p    1.4026m    1.1508m 
    4.00000p    1.3945m    1.1360m 
    4.10000p    1.3865m    1.1211m 
    4.20000p    1.3785m    1.1063m 
    4.30000p    1.3705m    1.0914m 
    4.40000p    1.3625m    1.0765m 
    4.50000p    1.3545m    1.0617m 
    4.60000p    1.3465m    1.0468m 
    4.70000p    1.3385m    1.0319m 
    4.80000p    1.3305m    1.0171m 
    4.90000p    1.3225m    1.0022m 
    5.00000p    1.3145m  987.3428u 
    5.10000p    1.3064m  972.4785u 
    5.20000p    1.2984m  957.6143u 
    5.30000p    1.2904m  942.7501u 
    5.40000p    1.2824m  927.8859u 
    5.50000p    1.2744m  913.0217u 
    5.60000p    1.2664m  898.1574u 
    5.70000p    1.2584m  883.2932u 
    5.80000p    1.2504m  868.4290u 
    5.90000p    1.2424m  853.5648u 
    6.00000p    1.2344m  838.7006u 
    6.10000p    1.2264m  823.8363u 
    6.20000p    1.2183m  808.9721u 
    6.30000p    1.2103m  794.1079u 
    6.40000p    1.2023m  779.2437u 
    6.50000p    1.1943m  764.3794u 
    6.60000p    1.1863m  749.5152u 
    6.70000p    1.1783m  734.6510u 
    6.80000p    1.1703m  719.7868u 
    6.90000p    1.1623m  704.9226u 
    7.00000p    1.1476m  668.1422u 
    7.10000p    1.1217m  594.5922u 
    7.20000p    1.0957m  521.0422u 
    7.30000p    1.0698m  447.4922u 
    7.40000p    1.0439m  373.9422u 
    7.50000p    1.0179m  300.3922u 
    7.60000p  992.0187u  226.8423u 
    7.70000p  966.0917u  153.2923u 
    7.80000p  940.1647u   79.7423u 
    7.90000p  914.2376u    6.1923u 
    8.00000p  888.3106u  -67.3577u 
    8.10000p  862.3836u -140.9077u 
    8.20000p  836.4566u -214.4577u 
    8.30000p  810.5296u -288.0077u 
    8.40000p  784.6025u -361.5576u 
    8.50000p  758.6755u -435.1076u 
    8.60000p  732.7485u -508.6576u 
    8.70000p  706.8215u -582.2076u 
    8.80000p  680.8945u -655.7576u 
    8.90000p  654.9674u -729.3076u 
    9.00000p  629.0404u -802.8576u 
    9.10000p  603.1134u -876.4076u 
    9.20000p  577.1864u -949.9575u 
    9.30000p  551.2594u   -1.0235m 
    9.40000p  525.3323u   -1.0971m 
    9.50000p  499.4053u   -1.1706m 
    9.60000p  473.4783u   -1.2442m 
    9.70000p  447.5513u   -1.3177m 
    9.80000p  421.6243u   -1.3913m 
    9.90000p  368.3927u   -1.5418m 
   10.00000p  315.0835u   -1.6925m 
   10.10000p  261.7744u   -1.8432m 
   10.20000p  208.4652u   -1.9939m 
   10.30000p  155.1561u   -2.1447m 
   10.40000p  101.8469u   -2.2954m 
   10.50000p   48.5377u   -2.4461m 
   10.60000p   -4.7714u   -2.5968m 
   10.70000p  -58.0806u   -2.7476m 
   10.80000p -111.3897u   -2.8983m 
   10.90000p -164.6989u   -3.0490m 
   11.00000p -218.0081u   -3.1997m 
   11.10000p -271.3172u   -3.3505m 
   11.20000p -324.6264u   -3.5012m 
   11.30000p -377.9355u   -3.6519m 
   11.40000p -431.2447u   -3.8026m 
   11.50000p -484.5538u   -3.9534m 
   11.60000p -537.8630u   -4.1041m 
   11.70000p -591.1722u   -4.2548m 
   11.80000p -644.4813u   -4.4055m 
   11.90000p -697.7905u   -4.5563m 
   12.00000p -751.0996u   -4.7070m 
   12.10000p -804.4088u   -4.8577m 
   12.20000p -857.7180u   -5.0084m 
   12.30000p -911.0271u   -5.1591m 
   12.40000p -964.3363u   -5.3099m 
   12.50000p   -1.0176m   -5.4606m 
   12.60000p   -1.0710m   -5.6113m 
   12.70000p   -1.1243m   -5.7620m 
   12.80000p   -1.1776m   -5.9128m 
   12.90000p   -1.2309m   -6.0635m 
   13.00000p   -1.2842m   -6.2142m 
   13.10000p   -1.3155m   -6.1909m 
   13.20000p   -1.3453m   -6.1564m 
   13.30000p   -1.3752m   -6.1219m 
   13.40000p   -1.4050m   -6.0874m 
   13.50000p   -1.4349m   -6.0528m 
   13.60000p   -1.4647m   -6.0183m 
   13.70000p   -1.4946m   -5.9838m 
   13.80000p   -1.5244m   -5.9493m 
   13.90000p   -1.5543m   -5.9148m 
   14.00000p   -1.5842m   -5.8803m 
   14.10000p   -1.6140m   -5.8458m 
   14.20000p   -1.6439m   -5.8113m 
   14.30000p   -1.6737m   -5.7768m 
   14.40000p   -1.7036m   -5.7423m 
   14.50000p   -1.7334m   -5.7078m 
   14.60000p   -1.7633m   -5.6733m 
   14.70000p   -1.7932m   -5.6388m 
   14.80000p   -1.8230m   -5.6043m 
   14.90000p   -1.8529m   -5.5698m 
   15.00000p   -1.8827m   -5.5353m 
   15.10000p   -1.9126m   -5.5008m 
   15.20000p   -1.9424m   -5.4663m 
   15.30000p   -1.9723m   -5.4318m 
   15.40000p   -2.0021m   -5.3973m 
   15.50000p   -2.0320m   -5.3628m 
   15.60000p   -2.0619m   -5.3283m 
   15.70000p   -2.0917m   -5.2938m 
   15.80000p   -2.1216m   -5.2593m 
   15.90000p   -2.1514m   -5.2248m 
   16.00000p   -2.1813m   -5.1903m 
   16.10000p   -2.2111m   -5.1558m 
   16.20000p   -2.2337m   -5.1065m 
   16.30000p   -1.5545m   -3.6497m 
   16.40000p -875.2897u   -2.1929m 
   16.50000p -196.1089u -736.0128u 
   16.60000p  483.0720u  720.8270u 
   16.70000p    1.1623m    2.1777m 
   16.80000p    1.8414m    3.6345m 
   16.90000p    2.5206m    5.0913m 
   17.00000p    3.1998m    6.5482m 
   17.10000p    3.8790m    8.0050m 
   17.20000p    4.5582m    9.4619m 
   17.30000p    5.2373m   10.9187m 
   17.40000p    5.9165m   12.3755m 
   17.50000p    6.5957m   13.8324m 
   17.60000p    7.2749m   15.2892m 
   17.70000p    7.9541m   16.7461m 
   17.80000p    8.6332m   18.2029m 
   17.90000p    9.3124m   19.6597m 
   18.00000p    9.9916m   21.1166m 
   18.10000p   10.6708m   22.5734m 
   18.20000p   11.3500m   24.0303m 
   18.30000p   12.0291m   25.4871m 
   18.40000p   13.2602m   27.3853m 
   18.50000p   16.7371m   31.0794m 
   18.60000p   20.2141m   34.7735m 
   18.70000p   23.6910m   38.4677m 
   18.80000p   27.1679m   42.1618m 
   18.90000p   30.6448m   45.8559m 
   19.00000p   34.1218m   49.5501m 
   19.10000p   37.5987m   53.2442m 
   19.20000p   41.0756m   56.9383m 
   19.30000p   44.5526m   60.6325m 
   19.40000p   48.0295m   64.3266m 
   19.50000p   51.5064m   68.0208m 
   19.60000p   54.9833m   71.7149m 
   19.70000p   58.4603m   75.4090m 
   19.80000p   61.9372m   79.1032m 
   19.90000p   65.4141m   82.7973m 
   20.00000p   68.8911m   86.4914m 
   20.10000p   72.3680m   90.1856m 
   20.20000p   75.8449m   93.8797m 
   20.30000p   79.3219m   97.5738m 
   20.40000p   82.7988m  101.2680m 
   20.50000p   86.2757m  104.9621m 
   20.60000p   89.7526m  108.6563m 
   20.70000p   93.2296m  112.3504m 
   20.80000p   96.7065m  116.0445m 
   20.90000p  100.1834m  119.7387m 
   21.00000p  103.6604m  123.4328m 
   21.10000p  110.0483m  127.5682m 
   21.20000p  116.4362m  131.7037m 
   21.30000p  122.8242m  135.8391m 
   21.40000p  129.2121m  139.9746m 
   21.50000p  135.6000m  144.1100m 
   21.60000p  141.9880m  148.2454m 
   21.70000p  148.3759m  152.3809m 
   21.80000p  154.7639m  156.5163m 
   21.90000p  161.3058m  160.5020m 
   22.00000p  167.8795m  164.4569m 
   22.10000p  174.4533m  168.4117m 
   22.20000p  181.0270m  172.3665m 
   22.30000p  187.7344m  175.8700m 
   22.40000p  194.5953m  178.8550m 
   22.50000p  201.4562m  181.8399m 
   22.60000p  208.3171m  184.8249m 
   22.70000p  215.1780m  187.8099m 
   22.80000p  222.0389m  190.7948m 
   22.90000p  228.8997m  193.7798m 
   23.00000p  235.7606m  196.7648m 
   23.10000p  242.6215m  199.7497m 
   23.20000p  249.4824m  202.7347m 
   23.30000p  256.3433m  205.7197m 
   23.40000p  263.2042m  208.7046m 
   23.50000p  270.0651m  211.6896m 
   23.60000p  276.9260m  214.6746m 
   23.70000p  283.6636m  216.8476m 
   23.80000p  290.2789m  218.2150m 
   23.90000p  296.8943m  219.5825m 
   24.00000p  303.5096m  220.9499m 
   24.10000p  310.1249m  222.3173m 
   24.20000p  316.7402m  223.6848m 
   24.30000p  323.3555m  225.0522m 
   24.40000p  329.9708m  226.4196m 
   24.50000p  336.5862m  227.7871m 
   24.60000p  343.2015m  229.1545m 
   24.70000p  349.8168m  230.5219m 
   24.80000p  356.4321m  231.8894m 
   24.90000p  363.0474m  233.2568m 
   25.00000p  369.6627m  234.6242m 
   25.10000p  376.2781m  235.9917m 
   25.20000p  382.1670m  236.0209m 
   25.30000p  387.8307m  235.6352m 
   25.40000p  393.4944m  235.2495m 
   25.50000p  399.1582m  234.8638m 
   25.60000p  404.8219m  234.4780m 
   25.70000p  410.4856m  234.0923m 
   25.80000p  416.1493m  233.7066m 
   25.90000p  421.8130m  233.3209m 
   26.00000p  427.4767m  232.9351m 
   26.10000p  433.1404m  232.5494m 
   26.20000p  438.8041m  232.1637m 
   26.30000p  444.4679m  231.7780m 
   26.40000p  450.1316m  231.3922m 
   26.50000p  455.7953m  231.0065m 
   26.60000p  461.4590m  230.6208m 
   26.70000p  467.1227m  230.2351m 
   26.80000p  472.7864m  229.8493m 
   26.90000p  478.4501m  229.4636m 
   27.00000p  483.6828m  228.5586m 
   27.10000p  488.0209m  226.5757m 
   27.20000p  492.3591m  224.5928m 
   27.30000p  496.6972m  222.6100m 
   27.40000p  501.0353m  220.6271m 
   27.50000p  505.3735m  218.6442m 
   27.60000p  509.7116m  216.6614m 
   27.70000p  514.0497m  214.6785m 
   27.80000p  518.3878m  212.6956m 
   27.90000p  522.7260m  210.7128m 
   28.00000p  527.0641m  208.7299m 
   28.10000p  531.4022m  206.7470m 
   28.20000p  535.7404m  204.7641m 
   28.30000p  540.0785m  202.7813m 
   28.40000p  544.4166m  200.7984m 
   28.50000p  548.7547m  198.8155m 
   28.60000p  553.0929m  196.8327m 
   28.70000p  557.3567m  194.8085m 
   28.80000p  560.2099m  191.9992m 
   28.90000p  563.0630m  189.1900m 
   29.00000p  565.9162m  186.3808m 
   29.10000p  568.7694m  183.5716m 
   29.20000p  571.6226m  180.7624m 
   29.30000p  574.4757m  177.9532m 
   29.40000p  577.3289m  175.1439m 
   29.50000p  580.1821m  172.3347m 
   29.60000p  583.0352m  169.5255m 
   29.70000p  585.8884m  166.7163m 
   29.80000p  588.7416m  163.9071m 
   29.90000p  591.5948m  161.0979m 
   30.00000p  594.4479m  158.2886m 
   30.10000p  597.3011m  155.4794m 
   30.20000p  600.1543m  152.6702m 
   30.30000p  603.0074m  149.8610m 
   30.40000p  605.8606m  147.0518m 
   30.50000p  608.7138m  144.2425m 
   30.60000p  611.5670m  141.4333m 
   30.70000p  614.4201m  138.6241m 
   30.80000p  617.2733m  135.8149m 
   30.90000p  620.1265m  133.0057m 
   31.00000p  622.9179m  130.2170m 
   31.10000p  624.4425m  127.8506m 
   31.20000p  625.9671m  125.4842m 
   31.30000p  627.4917m  123.1178m 
   31.40000p  629.0163m  120.7514m 
   31.50000p  630.5409m  118.3850m 
   31.60000p  632.0654m  116.0186m 
   31.70000p  633.5900m  113.6522m 
   31.80000p  635.1146m  111.2858m 
   31.90000p  636.6392m  108.9194m 
   32.00000p  638.1638m  106.5530m 
   32.10000p  639.6884m  104.1866m 
   32.20000p  641.2129m  101.8202m 
   32.30000p  642.7375m   99.4538m 
   32.40000p  644.2621m   97.0874m 
   32.50000p  645.7867m   94.7210m 
   32.60000p  647.3113m   92.3546m 
   32.70000p  648.8359m   89.9882m 
   32.80000p  650.3604m   87.6218m 
   32.90000p  651.8850m   85.2554m 
   33.00000p  653.4096m   82.8890m 
   33.10000p  654.9342m   80.5226m 
   33.20000p  656.4588m   78.1562m 
   33.30000p  657.9834m   75.7898m 
   33.40000p  659.5079m   73.4234m 
   33.50000p  661.0325m   71.0571m 
   33.60000p  662.5571m   68.6907m 
   33.70000p  664.0817m   66.3243m 
   33.80000p  665.0865m   64.6259m 
   33.90000p  665.8003m   63.3015m 
   34.00000p  666.5142m   61.9771m 
   34.10000p  667.2280m   60.6527m 
   34.20000p  667.9418m   59.3284m 
   34.30000p  668.6557m   58.0040m 
   34.40000p  669.3695m   56.6796m 
   34.50000p  670.0833m   55.3552m 
   34.60000p  670.7971m   54.0309m 
   34.70000p  671.5110m   52.7065m 
   34.80000p  672.2248m   51.3821m 
   34.90000p  672.9386m   50.0577m 
   35.00000p  673.6524m   48.7333m 
   35.10000p  674.3663m   47.4090m 
   35.20000p  675.0801m   46.0846m 
   35.30000p  675.7939m   44.7602m 
   35.40000p  676.5077m   43.4358m 
   35.50000p  677.2216m   42.1115m 
   35.60000p  677.9354m   40.7871m 
   35.70000p  678.6492m   39.4627m 
   35.80000p  679.3630m   38.1383m 
   35.90000p  680.0769m   36.8140m 
   36.00000p  680.7907m   35.4896m 
   36.10000p  681.5045m   34.1652m 
   36.20000p  682.2184m   32.8408m 
   36.30000p  682.9322m   31.5165m 
   36.40000p  683.5490m   30.3704m 
   36.50000p  683.8642m   29.7786m 
   36.60000p  684.1794m   29.1868m 
   36.70000p  684.4946m   28.5950m 
   36.80000p  684.8098m   28.0032m 
   36.90000p  685.1250m   27.4114m 
   37.00000p  685.4402m   26.8196m 
   37.10000p  685.7554m   26.2278m 
   37.20000p  686.0706m   25.6360m 
   37.30000p  686.3858m   25.0442m 
   37.40000p  686.7010m   24.4525m 
   37.50000p  687.0162m   23.8607m 
   37.60000p  687.3314m   23.2689m 
   37.70000p  687.6467m   22.6771m 
   37.80000p  687.9619m   22.0853m 
   37.90000p  688.2771m   21.4935m 
   38.00000p  688.5923m   20.9017m 
   38.10000p  688.9075m   20.3099m 
   38.20000p  689.2227m   19.7181m 
   38.30000p  689.5379m   19.1263m 
   38.40000p  689.8531m   18.5345m 
   38.50000p  690.1683m   17.9427m 
   38.60000p  690.4835m   17.3509m 
   38.70000p  690.7987m   16.7591m 
   38.80000p  691.1139m   16.1674m 
   38.90000p  691.4291m   15.5756m 
   39.00000p  691.7443m   14.9838m 
   39.10000p  692.0595m   14.3920m 
   39.20000p  692.3747m   13.8002m 
   39.30000p  692.6899m   13.2084m 
   39.40000p  693.0051m   12.6166m 
   39.50000p  693.3203m   12.0248m 
   39.60000p  693.6356m   11.4330m 
   39.70000p  693.7559m   11.2180m 
   39.80000p  693.8677m   11.0195m 
   39.90000p  693.9795m   10.8210m 
   40.00000p  694.0913m   10.6225m 
   40.10000p  694.2031m   10.4240m 
   40.20000p  694.3149m   10.2255m 
   40.30000p  694.4267m   10.0270m 
   40.40000p  694.5385m    9.8285m 
   40.50000p  694.6502m    9.6300m 
   40.60000p  694.7620m    9.4315m 
   40.70000p  694.8738m    9.2330m 
   40.80000p  694.9856m    9.0345m 
   40.90000p  695.0974m    8.8360m 
   41.00000p  695.2092m    8.6375m 
   41.10000p  695.3210m    8.4390m 
   41.20000p  695.4328m    8.2405m 
   41.30000p  695.5446m    8.0419m 
   41.40000p  695.6564m    7.8434m 
   41.50000p  695.7682m    7.6449m 
   41.60000p  695.8800m    7.4464m 
   41.70000p  695.9918m    7.2479m 
   41.80000p  696.1036m    7.0494m 
   41.90000p  696.2154m    6.8509m 
   42.00000p  696.3272m    6.6524m 
   42.10000p  696.4390m    6.4539m 
   42.20000p  696.5508m    6.2554m 
   42.30000p  696.6626m    6.0569m 
   42.40000p  696.7744m    5.8584m 
   42.50000p  696.8862m    5.6599m 
   42.60000p  696.9980m    5.4614m 
   42.70000p  697.1098m    5.2629m 
   42.80000p  697.2216m    5.0644m 
   42.90000p  697.3334m    4.8659m 
   43.00000p  697.4452m    4.6674m 
   43.10000p  697.5570m    4.4689m 
   43.20000p  697.6688m    4.2703m 
   43.30000p  697.7806m    4.0718m 
   43.40000p  697.8924m    3.8733m 
   43.50000p  698.0042m    3.6748m 
   43.60000p  698.0995m    3.5055m 
   43.70000p  698.1307m    3.4502m 
   43.80000p  698.1618m    3.3950m 
   43.90000p  698.1930m    3.3397m 
   44.00000p  698.2241m    3.2844m 
   44.10000p  698.2552m    3.2291m 
   44.20000p  698.2864m    3.1738m 
   44.30000p  698.3175m    3.1185m 
   44.40000p  698.3487m    3.0632m 
   44.50000p  698.3798m    3.0079m 
   44.60000p  698.4109m    2.9526m 
   44.70000p  698.4421m    2.8974m 
   44.80000p  698.4732m    2.8421m 
   44.90000p  698.5044m    2.7868m 
   45.00000p  698.5355m    2.7315m 
   45.10000p  698.5666m    2.6762m 
   45.20000p  698.5978m    2.6209m 
   45.30000p  698.6289m    2.5656m 
   45.40000p  698.6601m    2.5103m 
   45.50000p  698.6912m    2.4550m 
   45.60000p  698.7224m    2.3998m 
   45.70000p  698.7535m    2.3445m 
   45.80000p  698.7846m    2.2892m 
   45.90000p  698.8158m    2.2339m 
   46.00000p  698.8469m    2.1786m 
   46.10000p  698.8781m    2.1233m 
   46.20000p  698.9092m    2.0680m 
   46.30000p  698.9403m    2.0127m 
   46.40000p  698.9715m    1.9574m 
   46.50000p  699.0026m    1.9022m 
   46.60000p  699.0338m    1.8469m 
   46.70000p  699.0649m    1.7916m 
   46.80000p  699.0960m    1.7363m 
   46.90000p  699.1272m    1.6810m 
   47.00000p  699.1583m    1.6257m 
   47.10000p  699.1895m    1.5704m 
   47.20000p  699.2206m    1.5151m 
   47.30000p  699.2518m    1.4598m 
   47.40000p  699.2829m    1.4046m 
   47.50000p  699.3140m    1.3493m 
   47.60000p  699.3452m    1.2940m 
   47.70000p  699.3763m    1.2387m 
   47.80000p  699.4075m    1.1834m 
   47.90000p  699.4386m    1.1281m 
   48.00000p  699.4452m    1.1173m 
   48.10000p  699.4511m    1.1077m 
   48.20000p  699.4570m    1.0982m 
   48.30000p  699.4629m    1.0886m 
   48.40000p  699.4688m    1.0790m 
   48.50000p  699.4747m    1.0695m 
   48.60000p  699.4806m    1.0599m 
   48.70000p  699.4865m    1.0504m 
   48.80000p  699.4925m    1.0408m 
   48.90000p  699.4984m    1.0313m 
   49.00000p  699.5043m    1.0217m 
   49.10000p  699.5102m    1.0122m 
   49.20000p  699.5161m    1.0026m 
   49.30000p  699.5220m  993.0411u 
   49.40000p  699.5279m  983.4852u 
   49.50000p  699.5338m  973.9293u 
   49.60000p  699.5397m  964.3735u 
   49.70000p  699.5456m  954.8176u 
   49.80000p  699.5515m  945.2617u 
   49.90000p  699.5574m  935.7058u 
   50.00000p  699.5633m  926.1499u 
   50.10000p  699.5692m  916.5940u 
   50.20000p  699.5751m  907.0381u 
   50.30000p  699.5810m  897.4822u 
   50.40000p  699.5869m  887.9264u 
   50.50000p  699.5928m  878.3705u 
   50.60000p  699.5988m  868.8146u 
   50.70000p  699.6047m  859.2587u 
   50.80000p  699.6106m  849.7028u 
   50.90000p  699.6165m  840.1469u 
   51.00000p  699.6224m  830.5910u 
   51.10000p  699.6283m  821.0351u 
   51.20000p  699.6342m  811.4792u 
   51.30000p  699.6401m  801.9234u 
   51.40000p  699.6460m  792.3675u 
   51.50000p  699.6519m  782.8116u 
   51.60000p  699.6578m  773.2557u 
   51.70000p  699.6637m  763.6998u 
   51.80000p  699.6696m  754.1439u 
   51.90000p  699.6755m  744.5880u 
   52.00000p  699.6814m  735.0321u 
   52.10000p  699.6873m  725.4763u 
   52.20000p  699.6932m  715.9204u 
   52.30000p  699.6991m  706.3645u 
   52.40000p  699.7051m  696.8086u 
   52.50000p  699.7110m  687.2527u 
   52.60000p  699.7169m  677.6968u 
   52.70000p  699.7228m  668.1409u 
   52.80000p  699.7287m  658.5850u 
   52.90000p  699.7346m  649.0291u 
   53.00000p  699.7405m  639.4733u 
   53.10000p  699.7464m  629.9174u 
   53.20000p  699.7523m  620.3615u 
   53.30000p  699.7582m  610.8056u 
   53.40000p  699.7635m  602.0369u 
   53.50000p  699.7639m  600.0720u 
   53.60000p  699.7642m  598.1071u 
   53.70000p  699.7646m  596.1423u 
   53.80000p  699.7649m  594.1774u 
   53.90000p  699.7653m  592.2125u 
   54.00000p  699.7656m  590.2477u 
   54.10000p  699.7660m  588.2828u 
   54.20000p  699.7663m  586.3179u 
   54.30000p  699.7667m  584.3531u 
   54.40000p  699.7670m  582.3882u 
   54.50000p  699.7674m  580.4233u 
   54.60000p  699.7677m  578.4585u 
   54.70000p  699.7681m  576.4936u 
   54.80000p  699.7684m  574.5287u 
   54.90000p  699.7688m  572.5639u 
   55.00000p  699.7691m  570.5990u 
   55.10000p  699.7695m  568.6341u 
   55.20000p  699.7698m  566.6693u 
   55.30000p  699.7702m  564.7044u 
   55.40000p  699.7705m  562.7395u 
   55.50000p  699.7709m  560.7747u 
   55.60000p  699.7712m  558.8098u 
   55.70000p  699.7716m  556.8449u 
   55.80000p  699.7719m  554.8801u 
   55.90000p  699.7723m  552.9152u 
   56.00000p  699.7727m  550.9503u 
   56.10000p  699.7730m  548.9855u 
   56.20000p  699.7734m  547.0206u 
   56.30000p  699.7737m  545.0557u 
   56.40000p  699.7741m  543.0909u 
   56.50000p  699.7744m  541.1260u 
   56.60000p  699.7748m  539.1611u 
   56.70000p  699.7751m  537.1963u 
   56.80000p  699.7755m  535.2314u 
   56.90000p  699.7758m  533.2665u 
   57.00000p  699.7762m  531.3017u 
   57.10000p  699.7765m  529.3368u 
   57.20000p  699.7769m  527.3720u 
   57.30000p  699.7772m  525.4071u 
   57.40000p  699.7776m  523.4422u 
   57.50000p  699.7779m  521.4774u 
   57.60000p  699.7783m  519.5125u 
   57.70000p  699.7786m  517.5476u 
   57.80000p  699.7790m  515.5828u 
   57.90000p  699.7793m  513.6179u 
   58.00000p  699.7797m  511.6530u 
   58.10000p  699.7800m  509.6882u 
   58.20000p  699.7804m  507.7233u 
   58.30000p  699.7807m  505.7584u 
   58.40000p  699.7811m  503.7936u 
   58.50000p  699.7814m  501.8287u 
   58.60000p  699.7818m  499.8638u 
   58.70000p  699.7821m  497.8990u 
   58.80000p  699.7825m  495.9341u 
   58.90000p  699.7828m  493.9692u 
   59.00000p  699.7832m  492.0044u 
   59.10000p  699.7835m  490.0395u 
   59.20000p  699.7839m  488.0746u 
   59.30000p  699.7842m  486.1098u 
   59.40000p  699.7846m  484.1449u 
   59.50000p  699.7849m  482.1800u 
   59.60000p  699.7853m  480.2152u 
   59.70000p  699.7856m  478.2503u 
   59.80000p  699.7860m  476.2854u 
   59.90000p  699.7863m  474.3206u 
   60.00000p  699.7867m  472.3557u 
   60.10000p  699.7870m  470.3908u 
   60.20000p  699.7874m  468.4260u 
   60.30000p  699.7877m  466.4611u 
   60.40000p  699.7881m  464.4962u 
   60.50000p  699.7884m  462.5314u 
   60.60000p  699.7888m  460.5665u 
   60.70000p  699.7891m  458.6016u 
   60.80000p  699.7893m  457.6154u 
   60.90000p  699.7892m  457.6341u 
   61.00000p  699.7891m  457.6528u 
   61.10000p  699.7890m  457.6715u 
   61.20000p  699.7890m  457.6902u 
   61.30000p  699.7889m  457.7089u 
   61.40000p  699.7888m  457.7276u 
   61.50000p  699.7887m  457.7463u 
   61.60000p  699.7887m  457.7650u 
   61.70000p  699.7886m  457.7837u 
   61.80000p  699.7885m  457.8024u 
   61.90000p  699.7884m  457.8211u 
   62.00000p  699.7883m  457.8398u 
   62.10000p  699.7883m  457.8585u 
   62.20000p  699.7882m  457.8772u 
   62.30000p  699.7881m  457.8959u 
   62.40000p  699.7880m  457.9146u 
   62.50000p  699.7880m  457.9333u 
   62.60000p  699.7879m  457.9520u 
   62.70000p  699.7878m  457.9707u 
   62.80000p  699.7877m  457.9894u 
   62.90000p  699.7876m  458.0081u 
   63.00000p  699.7876m  458.0268u 
   63.10000p  699.7875m  458.0455u 
   63.20000p  699.7874m  458.0642u 
   63.30000p  699.7873m  458.0829u 
   63.40000p  699.7873m  458.1016u 
   63.50000p  699.7872m  458.1203u 
   63.60000p  699.7871m  458.1390u 
   63.70000p  699.7870m  458.1577u 
   63.80000p  699.7870m  458.1764u 
   63.90000p  699.7869m  458.1951u 
   64.00000p  699.7868m  458.2138u 
   64.10000p  699.7867m  458.2325u 
   64.20000p  699.7866m  458.2512u 
   64.30000p  699.7866m  458.2699u 
   64.40000p  699.7865m  458.2886u 
   64.50000p  699.7864m  458.3073u 
   64.60000p  699.7863m  458.3260u 
   64.70000p  699.7863m  458.3447u 
   64.80000p  699.7862m  458.3634u 
   64.90000p  699.7861m  458.3821u 
   65.00000p  699.7860m  458.4008u 
   65.10000p  699.7859m  458.4195u 
   65.20000p  699.7859m  458.4382u 
   65.30000p  699.7858m  458.4569u 
   65.40000p  699.7857m  458.4744u 
   65.50000p  699.7857m  458.2816u 
   65.60000p  699.7856m  458.0887u 
   65.70000p  699.7856m  457.8959u 
   65.80000p  699.7855m  457.7030u 
   65.90000p  699.7855m  457.5102u 
   66.00000p  699.7854m  457.3173u 
   66.10000p  699.7854m  457.1245u 
   66.20000p  699.7854m  456.9316u 
   66.30000p  699.7853m  456.7388u 
   66.40000p  699.7853m  456.5459u 
   66.50000p  699.7852m  456.3531u 
   66.60000p  699.7852m  456.1602u 
   66.70000p  699.7851m  455.9674u 
   66.80000p  699.7851m  455.7745u 
   66.90000p  699.7850m  455.5817u 
   67.00000p  699.7850m  455.3888u 
   67.10000p  699.7850m  455.1960u 
   67.20000p  699.7849m  455.0031u 
   67.30000p  699.7849m  454.8103u 
   67.40000p  699.7848m  454.6174u 
   67.50000p  699.7848m  454.4246u 
   67.60000p  699.7847m  454.2317u 
   67.70000p  699.7847m  454.0389u 
   67.80000p  699.7846m  453.8460u 
   67.90000p  699.7846m  453.6532u 
   68.00000p  699.7845m  453.4603u 
   68.10000p  699.7845m  453.2675u 
   68.20000p  699.7845m  453.0747u 
   68.30000p  699.7844m  452.8818u 
   68.40000p  699.7844m  452.6890u 
   68.50000p  699.7843m  452.4961u 
   68.60000p  699.7843m  452.3033u 
   68.70000p  699.7842m  452.1104u 
   68.80000p  699.7842m  451.9176u 
   68.90000p  699.7841m  451.7247u 
   69.00000p  699.7841m  451.5319u 
   69.10000p  699.7841m  451.3390u 
   69.20000p  699.7840m  451.1462u 
   69.30000p  699.7840m  450.9533u 
   69.40000p  699.7839m  450.7605u 
   69.50000p  699.7839m  450.5676u 
   69.60000p  699.7838m  450.3748u 
   69.70000p  699.7838m  450.1819u 
   69.80000p  699.7837m  449.9891u 
   69.90000p  699.7837m  449.7962u 
   70.00000p  699.7836m  449.6034u 
   70.10000p  699.7836m  449.4105u 
   70.20000p  699.7836m  449.2177u 
   70.30000p  699.7835m  449.0248u 
   70.40000p  699.7835m  448.8320u 
   70.50000p  699.7834m  448.6391u 
   70.60000p  699.7834m  448.4463u 
   70.70000p  699.7833m  448.2534u 
   70.80000p  699.7833m  448.0606u 
   70.90000p  699.7832m  447.8677u 
   71.00000p  699.7832m  447.6749u 
   71.10000p  699.7832m  447.4820u 
   71.20000p  699.7831m  447.2892u 
   71.30000p  699.7831m  447.0964u 
   71.40000p  699.7830m  446.9035u 
   71.50000p  699.7830m  446.7107u 
   71.60000p  699.7829m  446.5178u 
   71.70000p  699.7829m  446.3250u 
   71.80000p  699.7829m  446.2115u 
   71.90000p  699.7829m  446.1134u 
   72.00000p  699.7829m  446.0152u 
   72.10000p  699.7828m  445.9171u 
   72.20000p  699.7828m  445.8189u 
   72.30000p  699.7828m  445.7208u 
   72.40000p  699.7828m  445.6227u 
   72.50000p  699.7828m  445.5245u 
   72.60000p  699.7828m  445.4264u 
   72.70000p  699.7828m  445.3283u 
   72.80000p  699.7828m  445.2301u 
   72.90000p  699.7828m  445.1320u 
   73.00000p  699.7828m  445.0339u 
   73.10000p  699.7828m  444.9357u 
   73.20000p  699.7828m  444.8376u 
   73.30000p  699.7827m  444.7394u 
   73.40000p  699.7827m  444.6413u 
   73.50000p  699.7827m  444.5432u 
   73.60000p  699.7827m  444.4450u 
   73.70000p  699.7827m  444.3469u 
   73.80000p  699.7827m  444.2488u 
   73.90000p  699.7827m  444.1506u 
   74.00000p  699.7827m  444.0525u 
   74.10000p  699.7827m  443.9543u 
   74.20000p  699.7827m  443.8562u 
   74.30000p  699.7827m  443.7581u 
   74.40000p  699.7827m  443.6599u 
   74.50000p  699.7826m  443.5618u 
   74.60000p  699.7826m  443.4637u 
   74.70000p  699.7826m  443.3655u 
   74.80000p  699.7826m  443.2674u 
   74.90000p  699.7826m  443.1692u 
   75.00000p  699.7826m  443.0711u 
   75.10000p  699.7826m  442.9730u 
   75.20000p  699.7826m  442.8748u 
   75.30000p  699.7826m  442.7767u 
   75.40000p  699.7826m  442.6786u 
   75.50000p  699.7826m  442.5804u 
   75.60000p  699.7826m  442.4823u 
   75.70000p  699.7825m  442.3841u 
   75.80000p  699.7825m  442.2860u 
   75.90000p  699.7825m  442.1879u 
   76.00000p  699.7825m  442.0897u 
   76.10000p  699.7825m  441.9916u 
   76.20000p  699.7825m  441.8935u 
   76.30000p  699.7825m  441.7953u 
   76.40000p  699.7825m  441.6972u 
   76.50000p  699.7825m  441.5990u 
   76.60000p  699.7825m  441.5009u 
   76.70000p  699.7825m  441.4028u 
   76.80000p  699.7825m  441.3046u 
   76.90000p  699.7824m  441.2065u 
   77.00000p  699.7824m  441.1084u 
   77.10000p  699.7824m  441.0102u 
   77.20000p  699.7824m  440.9121u 
   77.30000p  699.7824m  440.8139u 
   77.40000p  699.7824m  440.7158u 
   77.50000p  699.7824m  440.6177u 
   77.60000p  699.7824m  440.5195u 
   77.70000p  699.7824m  440.4214u 
   77.80000p  699.7824m  440.3233u 
   77.90000p  699.7824m  440.2251u 
   78.00000p  699.7824m  440.1270u 
   78.10000p  699.7823m  440.0288u 
   78.20000p  699.7823m  439.9307u 
   78.30000p  699.7823m  439.8326u 
   78.40000p  699.7823m  439.7344u 
   78.50000p  699.7823m  439.6363u 
   78.60000p  699.7823m  439.5382u 
   78.70000p  699.7823m  439.4400u 
   78.80000p  699.7823m  439.3419u 
   78.90000p  699.7823m  439.2437u 
   79.00000p  699.7823m  439.1456u 
   79.10000p  699.7823m  439.0475u 
   79.20000p  699.7822m  438.9493u 
   79.30000p  699.7822m  438.8512u 
   79.40000p  699.7822m  438.7531u 
   79.50000p  699.7822m  438.6549u 
   79.60000p  699.7822m  438.5568u 
   79.70000p  699.7822m  438.4586u 
   79.80000p  699.7822m  438.3605u 
   79.90000p  699.7822m  438.2624u 
   80.00000p  699.7822m  438.1642u 
   80.10000p  699.7822m  438.0661u 
   80.20000p  699.7822m  437.9680u 
   80.30000p  699.7822m  437.8698u 
   80.40000p  699.7821m  437.7717u 
   80.50000p  699.7821m  437.6735u 
   80.60000p  699.7821m  437.5754u 
   80.70000p  699.7821m  437.4773u 
   80.80000p  699.7821m  437.3791u 
   80.90000p  699.7821m  437.2810u 
   81.00000p  699.7821m  437.1829u 
   81.10000p  699.7821m  437.0847u 
   81.20000p  699.7821m  436.9866u 
   81.30000p  699.7821m  436.8884u 
   81.40000p  699.7821m  436.7903u 
   81.50000p  699.7821m  436.6922u 
   81.60000p  699.7820m  436.5940u 
   81.70000p  699.7820m  436.4959u 
   81.80000p  699.7820m  436.3978u 
   81.90000p  699.7820m  436.2996u 
   82.00000p  699.7820m  436.2015u 
   82.10000p  699.7820m  436.1033u 
   82.20000p  699.7820m  436.0052u 
   82.30000p  699.7820m  435.9071u 
   82.40000p  699.7820m  435.8089u 
   82.50000p  699.7820m  435.7108u 
   82.60000p  699.7820m  435.6127u 
   82.70000p  699.7820m  435.5145u 
   82.80000p  699.7819m  435.4164u 
   82.90000p  699.7819m  435.3182u 
   83.00000p  699.7819m  435.2201u 
   83.10000p  699.7819m  435.1220u 
   83.20000p  699.7819m  435.0238u 
   83.30000p  699.7819m  434.9257u 
   83.40000p  699.7819m  434.8276u 
   83.50000p  699.7819m  434.7294u 
   83.60000p  699.7819m  434.6313u 
   83.70000p  699.7819m  434.5331u 
   83.80000p  699.7819m  434.4350u 
   83.90000p  699.7819m  434.3369u 
   84.00000p  699.7818m  434.2387u 
   84.10000p  699.7818m  434.1406u 
   84.20000p  699.7818m  434.0425u 
   84.30000p  699.7818m  433.9443u 
   84.40000p  699.7818m  433.8462u 
   84.50000p  699.7818m  433.7480u 
   84.60000p  699.7818m  433.6499u 
   84.70000p  699.7818m  433.5518u 
   84.80000p  699.7818m  433.4536u 
   84.90000p  699.7818m  433.3555u 
   85.00000p  699.7818m  433.2574u 
   85.10000p  699.7818m  433.1592u 
   85.20000p  699.7817m  433.0611u 
   85.30000p  699.7817m  432.9629u 
   85.40000p  699.7817m  432.8648u 
   85.50000p  699.7817m  432.7667u 
   85.60000p  699.7817m  432.6685u 
   85.70000p  699.7817m  432.5704u 
   85.80000p  699.7817m  432.4723u 
   85.90000p  699.7817m  432.3741u 
   86.00000p  699.7817m  432.2760u 
   86.10000p  699.7817m  432.1778u 
   86.20000p  699.7817m  432.0797u 
   86.30000p  699.7817m  431.9816u 
   86.40000p  699.7816m  431.8834u 
   86.50000p  699.7816m  431.7853u 
   86.60000p  699.7816m  431.6872u 
   86.70000p  699.7816m  431.5890u 
   86.80000p  699.7816m  431.4909u 
   86.90000p  699.7816m  431.3927u 
   87.00000p  699.7816m  431.3824u 
   87.10000p  699.7816m  431.3873u 
   87.20000p  699.7816m  431.3922u 
   87.30000p  699.7816m  431.3971u 
   87.40000p  699.7816m  431.4020u 
   87.50000p  699.7815m  431.4069u 
   87.60000p  699.7815m  431.4118u 
   87.70000p  699.7815m  431.4167u 
   87.80000p  699.7815m  431.4216u 
   87.90000p  699.7815m  431.4265u 
   88.00000p  699.7815m  431.4314u 
   88.10000p  699.7815m  431.4362u 
   88.20000p  699.7815m  431.4411u 
   88.30000p  699.7815m  431.4460u 
   88.40000p  699.7815m  431.4509u 
   88.50000p  699.7814m  431.4558u 
   88.60000p  699.7814m  431.4607u 
   88.70000p  699.7814m  431.4656u 
   88.80000p  699.7814m  431.4705u 
   88.90000p  699.7814m  431.4754u 
   89.00000p  699.7814m  431.4803u 
   89.10000p  699.7814m  431.4852u 
   89.20000p  699.7814m  431.4901u 
   89.30000p  699.7814m  431.4949u 
   89.40000p  699.7814m  431.4998u 
   89.50000p  699.7814m  431.5047u 
   89.60000p  699.7813m  431.5096u 
   89.70000p  699.7813m  431.5145u 
   89.80000p  699.7813m  431.5194u 
   89.90000p  699.7813m  431.5243u 
   90.00000p  699.7813m  431.5292u 
   90.10000p  699.7813m  431.5341u 
   90.20000p  699.7813m  431.5390u 
   90.30000p  699.7813m  431.5439u 
   90.40000p  699.7813m  431.5488u 
   90.50000p  699.7813m  431.5536u 
   90.60000p  699.7812m  431.5585u 
   90.70000p  699.7812m  431.5634u 
   90.80000p  699.7812m  431.5683u 
   90.90000p  699.7812m  431.5732u 
   91.00000p  699.7812m  431.5781u 
   91.10000p  699.7812m  431.5830u 
   91.20000p  699.7812m  431.5879u 
   91.30000p  699.7812m  431.5928u 
   91.40000p  699.7812m  431.5977u 
   91.50000p  699.7812m  431.6026u 
   91.60000p  699.7811m  431.6075u 
   91.70000p  699.7811m  431.6124u 
   91.80000p  699.7811m  431.6172u 
   91.90000p  699.7811m  431.6221u 
   92.00000p  699.7811m  431.6270u 
   92.10000p  699.7811m  431.6319u 
   92.20000p  699.7811m  431.6368u 
   92.30000p  699.7811m  431.6417u 
   92.40000p  699.7811m  431.6466u 
   92.50000p  699.7811m  431.6515u 
   92.60000p  699.7811m  431.6564u 
   92.70000p  699.7810m  431.6613u 
   92.80000p  699.7810m  431.6662u 
   92.90000p  699.7810m  431.6711u 
   93.00000p  699.7810m  431.6759u 
   93.10000p  699.7810m  431.6808u 
   93.20000p  699.7810m  431.6857u 
   93.30000p  699.7810m  431.6906u 
   93.40000p  699.7810m  431.6955u 
   93.50000p  699.7810m  431.7004u 
   93.60000p  699.7810m  431.7053u 
   93.70000p  699.7809m  431.7102u 
   93.80000p  699.7809m  431.7151u 
   93.90000p  699.7809m  431.7200u 
   94.00000p  699.7809m  431.7249u 
   94.10000p  699.7809m  431.7298u 
   94.20000p  699.7809m  431.7346u 
   94.30000p  699.7809m  431.7395u 
   94.40000p  699.7809m  431.7444u 
   94.50000p  699.7809m  431.7493u 
   94.60000p  699.7809m  431.7542u 
   94.70000p  699.7808m  431.7591u 
   94.80000p  699.7808m  431.7640u 
   94.90000p  699.7808m  431.7689u 
   95.00000p  699.7808m  431.7738u 
   95.10000p  699.7808m  431.7787u 
   95.20000p  699.7808m  431.7836u 
   95.30000p  699.7808m  431.7885u 
   95.40000p  699.7808m  431.7934u 
   95.50000p  699.7808m  431.7982u 
   95.60000p  699.7808m  431.8031u 
   95.70000p  699.7808m  431.8080u 
   95.80000p  699.7807m  431.8129u 
   95.90000p  699.7807m  431.8178u 
   96.00000p  699.7807m  431.8227u 
   96.10000p  699.7807m  431.8276u 
   96.20000p  699.7807m  431.8325u 
   96.30000p  699.7807m  431.8374u 
   96.40000p  699.7807m  431.8423u 
   96.50000p  699.7807m  431.8472u 
   96.60000p  699.7807m  431.8521u 
   96.70000p  699.7807m  431.8569u 
   96.80000p  699.7806m  431.8618u 
   96.90000p  699.7806m  431.8667u 
   97.00000p  699.7806m  431.8716u 
   97.10000p  699.7806m  431.8765u 
   97.20000p  699.7806m  431.8814u 
   97.30000p  699.7806m  431.8863u 
   97.40000p  699.7806m  431.8912u 
   97.50000p  699.7806m  431.8961u 
   97.60000p  699.7806m  431.9010u 
   97.70000p  699.7806m  431.9059u 
   97.80000p  699.7805m  431.9108u 
   97.90000p  699.7805m  431.9156u 
   98.00000p  699.7805m  431.9205u 
   98.10000p  699.7805m  431.9254u 
   98.20000p  699.7805m  431.9303u 
   98.30000p  699.7805m  431.9352u 
   98.40000p  699.7805m  431.9401u 
   98.50000p  699.7805m  431.9450u 
   98.60000p  699.7805m  431.9499u 
   98.70000p  699.7805m  431.9548u 
   98.80000p  699.7805m  431.9597u 
   98.90000p  699.7804m  431.9646u 
   99.00000p  699.7804m  431.9695u 
   99.10000p  699.7804m  431.9744u 
   99.20000p  699.7804m  431.9792u 
   99.30000p  699.7804m  431.9841u 
   99.40000p  699.7804m  431.9890u 
   99.50000p  699.7804m  431.9939u 
   99.60000p  699.7804m  431.9988u 
   99.70000p  699.7804m  432.0037u 
   99.80000p  699.7804m  432.0086u 
   99.90000p  699.7803m  432.0135u 
  100.00000p  699.7803m  432.0184u 
  100.10000p  699.7803m  432.0233u 
  100.20000p  699.7803m  432.0282u 
  100.30000p  699.7803m  432.0331u 
  100.40000p  699.7803m  432.0379u 
  100.50000p  699.7803m  432.0428u 
  100.60000p  699.7803m  432.0477u 
  100.70000p  699.7803m  432.0526u 
  100.80000p  699.7803m  432.0575u 
  100.90000p  699.7802m  432.0624u 
  101.00000p  699.7802m  432.0673u 
  101.10000p  699.7802m  432.0722u 
  101.20000p  699.7802m  432.0771u 
  101.30000p  699.7802m  432.0820u 
  101.40000p  699.7802m  432.0869u 
  101.50000p  699.7802m  432.0918u 
  101.60000p  699.7802m  432.0966u 
  101.70000p  699.7802m  432.1015u 
  101.80000p  699.7802m  432.1064u 
  101.90000p  699.7802m  432.1113u 
  102.00000p  699.7801m  432.1162u 
  102.10000p  699.7801m  432.1211u 
  102.20000p  699.7801m  432.1260u 
  102.30000p  699.7801m  432.1309u 
  102.40000p  699.7801m  432.1358u 
  102.50000p  699.7801m  432.1407u 
  102.60000p  699.7801m  432.1456u 
  102.70000p  699.7801m  432.1505u 
  102.80000p  699.7801m  432.1554u 
  102.90000p  699.7801m  432.1602u 
  103.00000p  699.7800m  432.1651u 
  103.10000p  699.7800m  432.1700u 
  103.20000p  699.7800m  432.1749u 
  103.30000p  699.7800m  432.1798u 
  103.40000p  699.7800m  432.1847u 
  103.50000p  699.7800m  432.1896u 
  103.60000p  699.7800m  432.1945u 
  103.70000p  699.7800m  432.1994u 
  103.80000p  699.7800m  432.2043u 
  103.90000p  699.7800m  432.2092u 
  104.00000p  699.7799m  432.2141u 
  104.10000p  699.7799m  432.2189u 
  104.20000p  699.7799m  432.2238u 
  104.30000p  699.7799m  432.2287u 
  104.40000p  699.7799m  432.2336u 
  104.50000p  699.7799m  432.2385u 
  104.60000p  699.7799m  432.2434u 
  104.70000p  699.7799m  432.2483u 
  104.80000p  699.7799m  432.2532u 
  104.90000p  699.7799m  432.2581u 
  105.00000p  699.7799m  432.2630u 
  105.10000p  699.7798m  432.2679u 
  105.20000p  699.7798m  432.2728u 
  105.30000p  699.7798m  432.2776u 
  105.40000p  699.7798m  432.2825u 
  105.50000p  699.7798m  432.2874u 
  105.60000p  699.7798m  432.2923u 
  105.70000p  699.7798m  432.2972u 
  105.80000p  699.7798m  432.3021u 
  105.90000p  699.7798m  432.3070u 
  106.00000p  699.7798m  432.3119u 
  106.10000p  699.7797m  432.3168u 
  106.20000p  699.7797m  432.3217u 
  106.30000p  699.7797m  432.3266u 
  106.40000p  699.7797m  432.3315u 
  106.50000p  699.7797m  432.3364u 
  106.60000p  699.7797m  432.3412u 
  106.70000p  699.7797m  432.3461u 
  106.80000p  699.7797m  432.3510u 
  106.90000p  699.7797m  432.3559u 
  107.00000p  699.7797m  432.3608u 
  107.10000p  699.7796m  432.3657u 
  107.20000p  699.7796m  432.3706u 
  107.30000p  699.7796m  432.3755u 
  107.40000p  699.7796m  432.3804u 
  107.50000p  699.7796m  432.3853u 
  107.60000p  699.7796m  432.3902u 
  107.70000p  699.7796m  432.3951u 
  107.80000p  699.7796m  432.3999u 
  107.90000p  699.7796m  432.4048u 
  108.00000p  699.7796m  432.4097u 
  108.10000p  699.7796m  432.4146u 
  108.20000p  699.7795m  432.4195u 
  108.30000p  699.7795m  432.4244u 
  108.40000p  699.7795m  432.4293u 
  108.50000p  699.7795m  432.4342u 
  108.60000p  699.7795m  432.4391u 
  108.70000p  699.7795m  432.4440u 
  108.80000p  699.7795m  432.4489u 
  108.90000p  699.7795m  432.4538u 
  109.00000p  699.7795m  432.4586u 
  109.10000p  699.7795m  432.4635u 
  109.20000p  699.7794m  432.4684u 
  109.30000p  699.7794m  432.4733u 
  109.40000p  699.7794m  432.4782u 
  109.50000p  699.7794m  432.4831u 
  109.60000p  699.7794m  432.4880u 
  109.70000p  699.7794m  432.4929u 
  109.80000p  699.7794m  432.4978u 
  109.90000p  699.7794m  432.5027u 
  110.00000p  699.7794m  432.5076u 
  110.10000p  699.7794m  432.5125u 
  110.20000p  699.7793m  432.5174u 
  110.30000p  699.7793m  432.5222u 
  110.40000p  699.7793m  432.5271u 
  110.50000p  699.7793m  432.5320u 
  110.60000p  699.7793m  432.5369u 
  110.70000p  699.7793m  432.5418u 
  110.80000p  699.7793m  432.5467u 
  110.90000p  699.7793m  432.5516u 
  111.00000p  699.7793m  432.5565u 
  111.10000p  699.7793m  432.5614u 
  111.20000p  699.7793m  432.5663u 
  111.30000p  699.7792m  432.5712u 
  111.40000p  699.7792m  432.5761u 
  111.50000p  699.7792m  432.5809u 
  111.60000p  699.7792m  432.5858u 
  111.70000p  699.7792m  432.5907u 
  111.80000p  699.7792m  432.5956u 
  111.90000p  699.7792m  432.6005u 
  112.00000p  699.7792m  432.6054u 
  112.10000p  699.7792m  432.6103u 
  112.20000p  699.7792m  432.6152u 
  112.30000p  699.7791m  432.6201u 
  112.40000p  699.7791m  432.6250u 
  112.50000p  699.7791m  432.6299u 
  112.60000p  699.7791m  432.6348u 
  112.70000p  699.7791m  432.6396u 
  112.80000p  699.7791m  432.6445u 
  112.90000p  699.7791m  432.6494u 
  113.00000p  699.7791m  432.6543u 
  113.10000p  699.7791m  432.6592u 
  113.20000p  699.7791m  432.6641u 
  113.30000p  699.7790m  432.6690u 
  113.40000p  699.7790m  432.6739u 
  113.50000p  699.7790m  432.6788u 
  113.60000p  699.7790m  432.6837u 
  113.70000p  699.7790m  432.6886u 
  113.80000p  699.7790m  432.6935u 
  113.90000p  699.7790m  432.6983u 
  114.00000p  699.7790m  432.7032u 
  114.10000p  699.7790m  432.7081u 
  114.20000p  699.7790m  432.7130u 
  114.30000p  699.7790m  432.7179u 
  114.40000p  699.7789m  432.7228u 
  114.50000p  699.7789m  432.7277u 
  114.60000p  699.7789m  432.7326u 
  114.70000p  699.7789m  432.7375u 
  114.80000p  699.7789m  432.7424u 
  114.90000p  699.7789m  432.7473u 
  115.00000p  699.7789m  432.7522u 
  115.10000p  699.7789m  432.7571u 
  115.20000p  699.7789m  432.7619u 
  115.30000p  699.7789m  432.7668u 
  115.40000p  699.7788m  432.7717u 
  115.50000p  699.7788m  432.7766u 
  115.60000p  699.7788m  432.7683u 
  115.70000p  699.7788m  432.6772u 
  115.80000p  699.7788m  432.5860u 
  115.90000p  699.7788m  432.4949u 
  116.00000p  699.7788m  432.4037u 
  116.10000p  699.7788m  432.3126u 
  116.20000p  699.7788m  432.2214u 
  116.30000p  699.7788m  432.1303u 
  116.40000p  699.7788m  432.0391u 
  116.50000p  699.7788m  431.9480u 
  116.60000p  699.7788m  431.8568u 
  116.70000p  699.7788m  431.7657u 
  116.80000p  699.7788m  431.6745u 
  116.90000p  699.7788m  431.5834u 
  117.00000p  699.7788m  431.4923u 
  117.10000p  699.7788m  431.4011u 
  117.20000p  699.7788m  431.3100u 
  117.30000p  699.7788m  431.2188u 
  117.40000p  699.7788m  431.1277u 
  117.50000p  699.7788m  431.0365u 
  117.60000p  699.7787m  430.9454u 
  117.70000p  699.7787m  430.8542u 
  117.80000p  699.7787m  430.7631u 
  117.90000p  699.7787m  430.6719u 
  118.00000p  699.7787m  430.5808u 
  118.10000p  699.7787m  430.4896u 
  118.20000p  699.7787m  430.3985u 
  118.30000p  699.7787m  430.3073u 
  118.40000p  699.7787m  430.2162u 
  118.50000p  699.7787m  430.1250u 
  118.60000p  699.7787m  430.0339u 
  118.70000p  699.7787m  429.9427u 
  118.80000p  699.7787m  429.8516u 
  118.90000p  699.7787m  429.7604u 
  119.00000p  699.7787m  429.6693u 
  119.10000p  699.7787m  429.5781u 
  119.20000p  699.7787m  429.4870u 
  119.30000p  699.7787m  429.3958u 
  119.40000p  699.7787m  429.3047u 
  119.50000p  699.7787m  429.2135u 
  119.60000p  699.7787m  429.1224u 
  119.70000p  699.7787m  429.0312u 
  119.80000p  699.7787m  428.9401u 
  119.90000p  699.7787m  428.8489u 
  120.00000p  699.7787m  428.7578u 
  120.10000p  699.7786m  428.6666u 
  120.20000p  699.7786m  428.5755u 
  120.30000p  699.7786m  428.4843u 
  120.40000p  699.7786m  428.3932u 
  120.50000p  699.7786m  428.3020u 
  120.60000p  699.7786m  428.2109u 
  120.70000p  699.7786m  428.1197u 
  120.80000p  699.7786m  428.0286u 
  120.90000p  699.7786m  427.9374u 
  121.00000p  699.7786m  427.8463u 
  121.10000p  699.7784m  423.8848u 
  121.20000p  699.7783m  419.9233u 
  121.30000p  699.7781m  415.9619u 
  121.40000p  699.7779m  412.0004u 
  121.50000p  699.7777m  408.0389u 
  121.60000p  699.7776m  404.0774u 
  121.70000p  699.7774m  400.1159u 
  121.80000p  699.7772m  396.1545u 
  121.90000p  699.7770m  392.1930u 
  122.00000p  699.7769m  388.2315u 
  122.10000p  699.7767m  384.2700u 
  122.20000p  699.7765m  380.3085u 
  122.30000p  699.7763m  376.3471u 
  122.40000p  699.7762m  372.3856u 
  122.50000p  699.7760m  368.4241u 
  122.60000p  699.7758m  364.4626u 
  122.70000p  699.7756m  360.5011u 
  122.80000p  699.7755m  356.5396u 
  122.90000p  699.7753m  352.5782u 
  123.00000p  699.7751m  348.6167u 
  123.10000p  699.7749m  344.6552u 
  123.20000p  699.7748m  340.4817u 
  123.30000p  699.7748m  335.9058u 
  123.40000p  699.7747m  331.3298u 
  123.50000p  699.7747m  326.7539u 
  123.60000p  699.7746m  322.1780u 
  123.70000p  699.7746m  318.0577u 
  123.80000p  699.7746m  317.2643u 
  123.90000p  699.7747m  316.4708u 
  124.00000p  699.7747m  315.6774u 
  124.10000p  699.7747m  314.8840u 
  124.20000p  699.7748m  314.0906u 
  124.30000p  699.7748m  313.2972u 
  124.40000p  699.7748m  312.5038u 
  124.50000p  699.7749m  311.7103u 
  124.60000p  699.7749m  310.9169u 
  124.70000p  699.7749m  310.1235u 
  124.80000p  699.7750m  309.3301u 
  124.90000p  699.7750m  308.5367u 
  125.00000p  699.7750m  307.7433u 
  125.10000p  699.7750m  306.9499u 
  125.20000p  699.7751m  306.1564u 
  125.30000p  699.7751m  305.3630u 
  125.40000p  699.7751m  305.6558u 
  125.50000p  699.7751m  307.5677u 
  125.60000p  699.7751m  309.4796u 
  125.70000p  699.7751m  311.3915u 
  125.80000p  699.7751m  313.3035u 
  125.90000p  699.7752m  315.2154u 
  126.00000p  699.7752m  317.1273u 
  126.10000p  699.7752m  319.0392u 
  126.20000p  699.7752m  320.9512u 
  126.30000p  699.7752m  322.8631u 
  126.40000p  699.7752m  324.7750u 
  126.50000p  699.7752m  326.6870u 
  126.60000p  699.7752m  328.5989u 
  126.70000p  699.7752m  330.5108u 
  126.80000p  699.7752m  332.4227u 
  126.90000p  699.7752m  334.3347u 
  127.00000p  699.7752m  336.2466u 
  127.10000p  699.7752m  338.1585u 
  127.20000p  699.7752m  340.0704u 
  127.30000p  699.7752m  341.9824u 
  127.40000p  699.7752m  343.8943u 
  127.50000p  699.7752m  345.8062u 
  127.60000p  699.7752m  347.7181u 
  127.70000p  699.7752m  349.6301u 
  127.80000p  699.7752m  351.5420u 
  127.90000p  699.7752m  353.4539u 
  128.00000p  699.7752m  355.3659u 
  128.10000p  699.7752m  357.2778u 
  128.20000p  699.7752m  359.1897u 
  128.30000p  699.7753m  361.1016u 
  128.40000p  699.7753m  363.0136u 
  128.50000p  699.7753m  364.9255u 
  128.60000p  699.7753m  366.8374u 
  128.70000p  699.7753m  368.7493u 
  128.80000p  699.7753m  370.6613u 
  128.90000p  699.7753m  372.5732u 
  129.00000p  699.7753m  374.4851u 
  129.10000p  699.7753m  376.3970u 
  129.20000p  699.7753m  378.3090u 
  129.30000p  699.7753m  380.2209u 
  129.40000p  699.7753m  382.1328u 
  129.50000p  699.7753m  384.0448u 
  129.60000p  699.7753m  385.9567u 
  129.70000p  699.7753m  387.8686u 
  129.80000p  699.7753m  389.7805u 
  129.90000p  699.7753m  391.6925u 
  130.00000p  699.7753m  393.6044u 
  130.10000p  699.7753m  395.5163u 
  130.20000p  699.7753m  397.4282u 
  130.30000p  699.7753m  399.3402u 
  130.40000p  699.7753m  401.2521u 
  130.50000p  699.7753m  403.1640u 
  130.60000p  699.7753m  405.0759u 
  130.70000p  699.7754m  406.9879u 
  130.80000p  699.7753m  408.4650u 
  130.90000p  699.7753m  409.8943u 
  131.00000p  699.7753m  411.3236u 
  131.10000p  699.7752m  412.7529u 
  131.20000p  699.7752m  414.1822u 
  131.30000p  699.7752m  415.6115u 
  131.40000p  699.7751m  417.0408u 
  131.50000p  699.7751m  418.4701u 
  131.60000p  699.7751m  419.8994u 
  131.70000p  699.7750m  421.3287u 
  131.80000p  699.7750m  422.7580u 
  131.90000p  699.7750m  424.1873u 
  132.00000p  699.7749m  425.6166u 
  132.10000p  699.7749m  427.0459u 
  132.20000p  699.7749m  428.4752u 
  132.30000p  699.7748m  429.9045u 
  132.40000p  699.7748m  431.3338u 
  132.50000p  699.7748m  432.7631u 
  132.60000p  699.7747m  434.1924u 
  132.70000p  699.7747m  435.6217u 
  132.80000p  699.7747m  437.0510u 
  132.90000p  699.7746m  438.4803u 
  133.00000p  699.7746m  439.9096u 
  133.10000p  699.7746m  441.3389u 
  133.20000p  699.7746m  442.7682u 
  133.30000p  699.7745m  444.1975u 
  133.40000p  699.7745m  445.6268u 
  133.50000p  699.7745m  447.0561u 
  133.60000p  699.7744m  448.4854u 
  133.70000p  699.7744m  449.9146u 
  133.80000p  699.7744m  451.3439u 
  133.90000p  699.7743m  452.7732u 
  134.00000p  699.7743m  454.2025u 
  134.10000p  699.7743m  455.6318u 
  134.20000p  699.7742m  457.0611u 
  134.30000p  699.7742m  458.4904u 
  134.40000p  699.7742m  459.9197u 
  134.50000p  699.7741m  461.3490u 
  134.60000p  699.7741m  462.7783u 
  134.70000p  699.7741m  464.2076u 
  134.80000p  699.7740m  465.6369u 
  134.90000p  699.7740m  467.0662u 
  135.00000p  699.7740m  468.4955u 
  135.10000p  699.7739m  469.9248u 
  135.20000p  699.7739m  471.3541u 
  135.30000p  699.7739m  472.1327u 
  135.40000p  699.7739m  472.5748u 
  135.50000p  699.7739m  473.0169u 
  135.60000p  699.7739m  473.4590u 
  135.70000p  699.7739m  473.9011u 
  135.80000p  699.7739m  474.3433u 
  135.90000p  699.7738m  474.7854u 
  136.00000p  699.7738m  475.2275u 
  136.10000p  699.7738m  475.6696u 
  136.20000p  699.7738m  476.1118u 
  136.30000p  699.7738m  476.5539u 
  136.40000p  699.7738m  476.9960u 
  136.50000p  699.7738m  477.4381u 
  136.60000p  699.7738m  477.8802u 
  136.70000p  699.7738m  478.3224u 
  136.80000p  699.7738m  478.7645u 
  136.90000p  699.7738m  479.2066u 
  137.00000p  699.7738m  479.6487u 
  137.10000p  699.7737m  480.0909u 
  137.20000p  699.7737m  480.5330u 
  137.30000p  699.7737m  480.9751u 
  137.40000p  699.7737m  481.4172u 
  137.50000p  699.7737m  481.8593u 
  137.60000p  699.7737m  482.3015u 
  137.70000p  699.7737m  482.7436u 
  137.80000p  699.7737m  483.1857u 
  137.90000p  699.7737m  483.6278u 
  138.00000p  699.7737m  484.0700u 
  138.10000p  699.7737m  484.5121u 
  138.20000p  699.7737m  484.9542u 
  138.30000p  699.7736m  485.3963u 
  138.40000p  699.7736m  485.8385u 
  138.50000p  699.7736m  486.2806u 
  138.60000p  699.7736m  486.7227u 
  138.70000p  699.7736m  487.1648u 
  138.80000p  699.7736m  487.6069u 
  138.90000p  699.7736m  488.0491u 
  139.00000p  699.7736m  488.4912u 
  139.10000p  699.7736m  488.9333u 
  139.20000p  699.7736m  489.3754u 
  139.30000p  699.7736m  489.8176u 
  139.40000p  699.7736m  490.2597u 
  139.50000p  699.7735m  490.7018u 
  139.60000p  699.7735m  491.1439u 
  139.70000p  699.7735m  491.5860u 
  139.80000p  699.7735m  492.0282u 
  139.90000p  699.7735m  492.4703u 
  140.00000p  699.7735m  492.9124u 
  140.10000p  699.7735m  493.3545u 
  140.20000p  699.7735m  493.7967u 
  140.30000p  699.7735m  494.2388u 
  140.40000p  699.7735m  494.6809u 
  140.50000p  699.7735m  495.1230u 
  140.60000p  699.7735m  495.5651u 
  140.70000p  699.7734m  496.0073u 
  140.80000p  699.7734m  496.4494u 
  140.90000p  699.7734m  496.8915u 
  141.00000p  699.7734m  497.3336u 
  141.10000p  699.7735m  505.0164u 
  141.20000p  699.7736m  512.6991u 
  141.30000p  699.7737m  520.3818u 
  141.40000p  699.7737m  528.0646u 
  141.50000p  699.7738m  535.7473u 
  141.60000p  699.7739m  543.4300u 
  141.70000p  699.7740m  551.1128u 
  141.80000p  699.7741m  558.7955u 
  141.90000p  699.7742m  566.4504u 
  142.00000p  699.7743m  573.9385u 
  142.10000p  699.7745m  581.4266u 
  142.20000p  699.7746m  588.9147u 
  142.30000p  699.7748m  596.4029u 
  142.40000p  699.7749m  603.8910u 
  142.50000p  699.7751m  611.3791u 
  142.60000p  699.7751m  613.8617u 
  142.70000p  699.7751m  613.2565u 
  142.80000p  699.7751m  612.6514u 
  142.90000p  699.7751m  612.0462u 
  143.00000p  699.7751m  611.4411u 
  143.10000p  699.7751m  610.8360u 
  143.20000p  699.7751m  610.2308u 
  143.30000p  699.7751m  609.6257u 
  143.40000p  699.7751m  609.0205u 
  143.50000p  699.7751m  608.4154u 
  143.60000p  699.7750m  607.8102u 
  143.70000p  699.7750m  607.2051u 
  143.80000p  699.7750m  606.5999u 
  143.90000p  699.7750m  605.9948u 
  144.00000p  699.7750m  605.3896u 
  144.10000p  699.7750m  604.7845u 
  144.20000p  699.7750m  604.1793u 
  144.30000p  699.7750m  603.5742u 
  144.40000p  699.7750m  602.9690u 
  144.50000p  699.7750m  602.3639u 
  144.60000p  699.7750m  601.7587u 
  144.70000p  699.7749m  599.6933u 
  144.80000p  699.7749m  597.1143u 
  144.90000p  699.7748m  594.5353u 
  145.00000p  699.7747m  591.9562u 
  145.10000p  699.7747m  589.3772u 
  145.20000p  699.7746m  586.7981u 
  145.30000p  699.7746m  584.2191u 
  145.40000p  699.7745m  581.6400u 
  145.50000p  699.7744m  579.0610u 
  145.60000p  699.7744m  576.4819u 
  145.70000p  699.7743m  573.9029u 
  145.80000p  699.7743m  571.3239u 
  145.90000p  699.7742m  568.7448u 
  146.00000p  699.7742m  566.1658u 
  146.10000p  699.7741m  563.5867u 
  146.20000p  699.7740m  561.0077u 
  146.30000p  699.7740m  558.4286u 
  146.40000p  699.7739m  555.8496u 
  146.50000p  699.7739m  553.2705u 
  146.60000p  699.7738m  550.6915u 
  146.70000p  699.7737m  548.1125u 
  146.80000p  699.7737m  545.5334u 
  146.90000p  699.7736m  542.9544u 
  147.00000p  699.7736m  540.3753u 
  147.10000p  699.7735m  537.7963u 
  147.20000p  699.7734m  535.2172u 
  147.30000p  699.7734m  532.6382u 
  147.40000p  699.7733m  530.0591u 
  147.50000p  699.7733m  527.4801u 
  147.60000p  699.7732m  524.9010u 
  147.70000p  699.7731m  522.3220u 
  147.80000p  699.7731m  519.7430u 
  147.90000p  699.7730m  517.1639u 
  148.00000p  699.7730m  514.5849u 
  148.10000p  699.7729m  512.0058u 
  148.20000p  699.7729m  509.4268u 
  148.30000p  699.7728m  506.8477u 
  148.40000p  699.7727m  504.2687u 
  148.50000p  699.7727m  501.6896u 
  148.60000p  699.7726m  499.1106u 
  148.70000p  699.7726m  496.5316u 
  148.80000p  699.7725m  493.9525u 
  148.90000p  699.7724m  491.3735u 
  149.00000p  699.7724m  488.7944u 
  149.10000p  699.7723m  486.2154u 
  149.20000p  699.7723m  483.6363u 
  149.30000p  699.7722m  481.0573u 
  149.40000p  699.7721m  478.4782u 
  149.50000p  699.7721m  475.8992u 
  149.60000p  699.7720m  473.3202u 
  149.70000p  699.7720m  470.7411u 
  149.80000p  699.7719m  468.1621u 
  149.90000p  699.7719m  465.5830u 
  150.00000p  699.7718m  463.0040u 
  150.10000p  699.7717m  460.4249u 
  150.20000p  699.7717m  457.8459u 
  150.30000p  699.7716m  455.2668u 
  150.40000p  699.7716m  452.6878u 
  150.50000p  699.7715m  450.1087u 
  150.60000p  699.7714m  447.5297u 
  150.70000p  699.7714m  444.9507u 
  150.80000p  699.7713m  442.3716u 
  150.90000p  699.7713m  439.7926u 
  151.00000p  699.7712m  437.2135u 
  151.10000p  699.7711m  434.6345u 
  151.20000p  699.7711m  432.0554u 
  151.30000p  699.7710m  429.4764u 
  151.40000p  699.7711m  429.3954u 
  151.50000p  699.7712m  429.5084u 
  151.60000p  699.7712m  429.6214u 
  151.70000p  699.7713m  429.7344u 
  151.80000p  699.7714m  429.8474u 
  151.90000p  699.7714m  429.9605u 
  152.00000p  699.7715m  430.0735u 
  152.10000p  699.7716m  430.1865u 
  152.20000p  699.7716m  430.2995u 
  152.30000p  699.7717m  430.4125u 
  152.40000p  699.7718m  430.5255u 
  152.50000p  699.7719m  430.6385u 
  152.60000p  699.7719m  430.7515u 
  152.70000p  699.7720m  430.8645u 
  152.80000p  699.7721m  430.9775u 
  152.90000p  699.7721m  431.0905u 
  153.00000p  699.7722m  431.2036u 
  153.10000p  699.7723m  431.3166u 
  153.20000p  699.7724m  431.4296u 
  153.30000p  699.7724m  431.5426u 
  153.40000p  699.7725m  431.6556u 
  153.50000p  699.7726m  431.7686u 
  153.60000p  699.7726m  431.8816u 
  153.70000p  699.7727m  431.9946u 
  153.80000p  699.7728m  432.1076u 
  153.90000p  699.7728m  432.2206u 
  154.00000p  699.7729m  432.3336u 
  154.10000p  699.7730m  432.4466u 
  154.20000p  699.7731m  432.5597u 
  154.30000p  699.7731m  432.6727u 
  154.40000p  699.7732m  432.7857u 
  154.50000p  699.7733m  432.8987u 
  154.60000p  699.7733m  433.0117u 
  154.70000p  699.7734m  433.1247u 
  154.80000p  699.7735m  433.2377u 
  154.90000p  699.7736m  433.3507u 
  155.00000p  699.7736m  433.4637u 
  155.10000p  699.7737m  433.5767u 
  155.20000p  699.7738m  433.6897u 
  155.30000p  699.7738m  433.8028u 
  155.40000p  699.7739m  433.9158u 
  155.50000p  699.7739m  433.9466u 
  155.60000p  699.7740m  433.9518u 
  155.70000p  699.7740m  433.9569u 
  155.80000p  699.7741m  433.9621u 
  155.90000p  699.7741m  433.9672u 
  156.00000p  699.7741m  433.9724u 
  156.10000p  699.7742m  433.9775u 
  156.20000p  699.7742m  433.9826u 
  156.30000p  699.7742m  433.9878u 
  156.40000p  699.7743m  433.9929u 
  156.50000p  699.7743m  433.9981u 
  156.60000p  699.7743m  434.0032u 
  156.70000p  699.7744m  434.0083u 
  156.80000p  699.7744m  434.0135u 
  156.90000p  699.7744m  434.0186u 
  157.00000p  699.7745m  434.0238u 
  157.10000p  699.7745m  434.0289u 
  157.20000p  699.7745m  434.0341u 
  157.30000p  699.7746m  434.0392u 
  157.40000p  699.7746m  434.0443u 
  157.50000p  699.7746m  434.0495u 
  157.60000p  699.7747m  434.0546u 
  157.70000p  699.7747m  434.0598u 
  157.80000p  699.7748m  434.0649u 
  157.90000p  699.7748m  434.0701u 
  158.00000p  699.7748m  434.0752u 
  158.10000p  699.7749m  434.0803u 
  158.20000p  699.7749m  434.0855u 
  158.30000p  699.7749m  434.0906u 
  158.40000p  699.7750m  434.0958u 
  158.50000p  699.7750m  434.1009u 
  158.60000p  699.7750m  434.1060u 
  158.70000p  699.7751m  434.1112u 
  158.80000p  699.7751m  434.1163u 
  158.90000p  699.7751m  434.1215u 
  159.00000p  699.7752m  434.1266u 
  159.10000p  699.7752m  434.1318u 
  159.20000p  699.7752m  434.1369u 
  159.30000p  699.7753m  434.1420u 
  159.40000p  699.7753m  434.1472u 
  159.50000p  699.7753m  434.1523u 
  159.60000p  699.7754m  434.1575u 
  159.70000p  699.7754m  434.1626u 
  159.80000p  699.7755m  434.1678u 
  159.90000p  699.7755m  434.1729u 
  160.00000p  699.7755m  434.1780u 
  160.10000p  699.7756m  434.1832u 
  160.20000p  699.7756m  434.1883u 
  160.30000p  699.7756m  434.1935u 
  160.40000p  699.7757m  434.1986u 
  160.50000p  699.7757m  434.2038u 
  160.60000p  699.7757m  434.2089u 
  160.70000p  699.7758m  434.2140u 
  160.80000p  699.7758m  434.2192u 
  160.90000p  699.7758m  434.2243u 
  161.00000p  699.7759m  434.2295u 
  161.10000p  699.7759m  434.2346u 
  161.20000p  699.7759m  434.2397u 
  161.30000p  699.7760m  434.2449u 
  161.40000p  699.7760m  434.2500u 
  161.50000p  699.7760m  434.2552u 
  161.60000p  699.7761m  434.2603u 
  161.70000p  699.7761m  434.2655u 
  161.80000p  699.7762m  434.2706u 
  161.90000p  699.7762m  434.2757u 
  162.00000p  699.7762m  434.2809u 
  162.10000p  699.7763m  434.2860u 
  162.20000p  699.7763m  434.2912u 
  162.30000p  699.7763m  434.2963u 
  162.40000p  699.7764m  434.3015u 
  162.50000p  699.7764m  434.3066u 
  162.60000p  699.7764m  434.3117u 
  162.70000p  699.7765m  434.3169u 
  162.80000p  699.7765m  434.3220u 
  162.90000p  699.7765m  434.3272u 
  163.00000p  699.7766m  434.3323u 
  163.10000p  699.7766m  434.3375u 
  163.20000p  699.7766m  434.3426u 
  163.30000p  699.7767m  434.3477u 
  163.40000p  699.7767m  434.3529u 
  163.50000p  699.7767m  434.3580u 
  163.60000p  699.7768m  434.3632u 
  163.70000p  699.7768m  434.3683u 
  163.80000p  699.7768m  434.3609u 
  163.90000p  699.7768m  434.3246u 
  164.00000p  699.7768m  434.2884u 
  164.10000p  699.7768m  434.2522u 
  164.20000p  699.7768m  434.2159u 
  164.30000p  699.7767m  434.1797u 
  164.40000p  699.7767m  434.1434u 
  164.50000p  699.7767m  434.1072u 
  164.60000p  699.7767m  434.0709u 
  164.70000p  699.7767m  434.0347u 
  164.80000p  699.7766m  433.9984u 
  164.90000p  699.7766m  433.9622u 
  165.00000p  699.7766m  433.9259u 
  165.10000p  699.7766m  433.8897u 
  165.20000p  699.7766m  433.8534u 
  165.30000p  699.7765m  433.8172u 
  165.40000p  699.7765m  433.7809u 
  165.50000p  699.7765m  433.7447u 
  165.60000p  699.7765m  433.7084u 
  165.70000p  699.7765m  433.6722u 
  165.80000p  699.7765m  433.6360u 
  165.90000p  699.7764m  433.5997u 
  166.00000p  699.7764m  433.5635u 
  166.10000p  699.7764m  433.5272u 
  166.20000p  699.7764m  433.4910u 
  166.30000p  699.7764m  433.4547u 
  166.40000p  699.7763m  433.4185u 
  166.50000p  699.7763m  433.3822u 
  166.60000p  699.7763m  433.3460u 
  166.70000p  699.7763m  433.3097u 
  166.80000p  699.7763m  433.2735u 
  166.90000p  699.7762m  433.2372u 
  167.00000p  699.7762m  433.2010u 
  167.10000p  699.7762m  433.1647u 
  167.20000p  699.7762m  433.1285u 
  167.30000p  699.7762m  433.0922u 
  167.40000p  699.7761m  433.0560u 
  167.50000p  699.7761m  433.0197u 
  167.60000p  699.7761m  432.9835u 
  167.70000p  699.7761m  432.9473u 
  167.80000p  699.7761m  432.9110u 
  167.90000p  699.7760m  432.8748u 
  168.00000p  699.7760m  432.8385u 
  168.10000p  699.7760m  432.8023u 
  168.20000p  699.7760m  432.7660u 
  168.30000p  699.7760m  432.7298u 
  168.40000p  699.7760m  432.6935u 
  168.50000p  699.7759m  432.6573u 
  168.60000p  699.7759m  432.6210u 
  168.70000p  699.7759m  432.5848u 
  168.80000p  699.7759m  432.5485u 
  168.90000p  699.7759m  432.5123u 
  169.00000p  699.7758m  432.4760u 
  169.10000p  699.7758m  432.4398u 
  169.20000p  699.7758m  432.4035u 
  169.30000p  699.7758m  432.3673u 
  169.40000p  699.7758m  432.3311u 
  169.50000p  699.7757m  432.2948u 
  169.60000p  699.7757m  432.2586u 
  169.70000p  699.7757m  432.2223u 
  169.80000p  699.7757m  432.1861u 
  169.90000p  699.7757m  432.1498u 
  170.00000p  699.7756m  432.1136u 
  170.10000p  699.7756m  432.0773u 
  170.20000p  699.7756m  432.0411u 
  170.30000p  699.7756m  432.0048u 
  170.40000p  699.7756m  431.9686u 
  170.50000p  699.7756m  431.9323u 
  170.60000p  699.7755m  431.8961u 
  170.70000p  699.7755m  431.8598u 
  170.80000p  699.7755m  431.8236u 
  170.90000p  699.7755m  431.7873u 
  171.00000p  699.7755m  431.7511u 
  171.10000p  699.7754m  431.7148u 
  171.20000p  699.7754m  431.6786u 
  171.30000p  699.7754m  431.6424u 
  171.40000p  699.7754m  431.6061u 
  171.50000p  699.7754m  431.5699u 
  171.60000p  699.7753m  431.5336u 
  171.70000p  699.7753m  431.4974u 
  171.80000p  699.7753m  431.4611u 
  171.90000p  699.7753m  431.4249u 
  172.00000p  699.7753m  431.3886u 
  172.10000p  699.7752m  431.3524u 
  172.20000p  699.7752m  431.3161u 
  172.30000p  699.7752m  431.2799u 
  172.40000p  699.7752m  431.2436u 
  172.50000p  699.7752m  431.2074u 
  172.60000p  699.7751m  431.1711u 
  172.70000p  699.7751m  431.1349u 
  172.80000p  699.7751m  431.0986u 
  172.90000p  699.7751m  431.0624u 
  173.00000p  699.7751m  431.0261u 
  173.10000p  699.7751m  430.9899u 
  173.20000p  699.7750m  430.9537u 
  173.30000p  699.7750m  430.9174u 
  173.40000p  699.7750m  430.8812u 
  173.50000p  699.7750m  430.8449u 
  173.60000p  699.7750m  430.8087u 
  173.70000p  699.7749m  430.7724u 
  173.80000p  699.7749m  430.7362u 
  173.90000p  699.7749m  430.6999u 
  174.00000p  699.7749m  430.6637u 
  174.10000p  699.7749m  430.6274u 
  174.20000p  699.7748m  430.5912u 
  174.30000p  699.7748m  430.5549u 
  174.40000p  699.7748m  430.5187u 
  174.50000p  699.7748m  430.4824u 
  174.60000p  699.7748m  430.4462u 
  174.70000p  699.7747m  430.4099u 
  174.80000p  699.7747m  430.3737u 
  174.90000p  699.7747m  430.3375u 
  175.00000p  699.7747m  430.3012u 
  175.10000p  699.7747m  430.2650u 
  175.20000p  699.7747m  430.2287u 
  175.30000p  699.7746m  430.1925u 
  175.40000p  699.7746m  430.1562u 
  175.50000p  699.7746m  430.1200u 
  175.60000p  699.7746m  430.0837u 
  175.70000p  699.7746m  430.0475u 
  175.80000p  699.7745m  430.0112u 
  175.90000p  699.7745m  429.9750u 
  176.00000p  699.7745m  429.9387u 
  176.10000p  699.7745m  429.9025u 
  176.20000p  699.7745m  429.8662u 
  176.30000p  699.7744m  429.8300u 
  176.40000p  699.7744m  429.7937u 
  176.50000p  699.7744m  429.7575u 
  176.60000p  699.7744m  429.7212u 
  176.70000p  699.7744m  429.6850u 
  176.80000p  699.7743m  429.6488u 
  176.90000p  699.7743m  429.6125u 
  177.00000p  699.7743m  429.5763u 
  177.10000p  699.7743m  429.5400u 
  177.20000p  699.7743m  429.5038u 
  177.30000p  699.7742m  429.4675u 
  177.40000p  699.7742m  429.4313u 
  177.50000p  699.7742m  429.3950u 
  177.60000p  699.7742m  429.3588u 
  177.70000p  699.7742m  429.3225u 
  177.80000p  699.7742m  429.2863u 
  177.90000p  699.7741m  429.2500u 
  178.00000p  699.7741m  429.2138u 
  178.10000p  699.7741m  429.1775u 
  178.20000p  699.7741m  429.1413u 
  178.30000p  699.7741m  429.1050u 
  178.40000p  699.7740m  429.0688u 
  178.50000p  699.7740m  429.0326u 
  178.60000p  699.7740m  428.9963u 
  178.70000p  699.7740m  428.9601u 
  178.80000p  699.7740m  428.9238u 
  178.90000p  699.7739m  428.8876u 
  179.00000p  699.7739m  428.8513u 
  179.10000p  699.7739m  428.8151u 
  179.20000p  699.7739m  428.7788u 
  179.30000p  699.7739m  428.7426u 
  179.40000p  699.7738m  428.7063u 
  179.50000p  699.7738m  428.6701u 
  179.60000p  699.7738m  428.6338u 
  179.70000p  699.7738m  428.5976u 
  179.80000p  699.7738m  428.5613u 
  179.90000p  699.7738m  428.5251u 
  180.00000p  699.7737m  428.4888u 
  180.10000p  699.7737m  428.4526u 
  180.20000p  699.7737m  428.4163u 
  180.30000p  699.7737m  428.3801u 
  180.40000p  699.7737m  428.3439u 
  180.50000p  699.7736m  428.3076u 
  180.60000p  699.7736m  428.2714u 
  180.70000p  699.7736m  428.2351u 
  180.80000p  699.7736m  428.1989u 
  180.90000p  699.7736m  428.1626u 
  181.00000p  699.7735m  428.1264u 
  181.10000p  699.7735m  428.0901u 
  181.20000p  699.7735m  428.0539u 
  181.30000p  699.7735m  428.0176u 
  181.40000p  699.7735m  427.9814u 
  181.50000p  699.7734m  427.9451u 
  181.60000p  699.7734m  427.9089u 
  181.70000p  699.7734m  427.8726u 
  181.80000p  699.7734m  427.8364u 
  181.90000p  699.7734m  427.8001u 
  182.00000p  699.7733m  427.7639u 
  182.10000p  699.7733m  427.7277u 
  182.20000p  699.7733m  427.6914u 
  182.30000p  699.7733m  427.6552u 
  182.40000p  699.7733m  427.6189u 
  182.50000p  699.7733m  427.5827u 
  182.60000p  699.7732m  427.5464u 
  182.70000p  699.7732m  427.5102u 
  182.80000p  699.7732m  427.4739u 
  182.90000p  699.7732m  427.4377u 
  183.00000p  699.7732m  427.4014u 
  183.10000p  699.7731m  427.3652u 
  183.20000p  699.7731m  427.3289u 
  183.30000p  699.7731m  427.2927u 
  183.40000p  699.7731m  427.2564u 
  183.50000p  699.7731m  427.2202u 
  183.60000p  699.7730m  427.1839u 
  183.70000p  699.7730m  427.1477u 
  183.80000p  699.7730m  427.1114u 
  183.90000p  699.7730m  427.0752u 
  184.00000p  699.7730m  427.0390u 
  184.10000p  699.7729m  427.0027u 
  184.20000p  699.7729m  426.9665u 
  184.30000p  699.7729m  426.9302u 
  184.40000p  699.7729m  426.8940u 
  184.50000p  699.7729m  426.8577u 
  184.60000p  699.7729m  426.8215u 
  184.70000p  699.7728m  426.7852u 
  184.80000p  699.7728m  426.7490u 
  184.90000p  699.7728m  426.7127u 
  185.00000p  699.7728m  426.7301u 
  185.10000p  699.7728m  426.7475u 
  185.20000p  699.7728m  426.7649u 
  185.30000p  699.7729m  426.7823u 
  185.40000p  699.7729m  426.7997u 
  185.50000p  699.7729m  426.8171u 
  185.60000p  699.7729m  426.8345u 
  185.70000p  699.7729m  426.8519u 
  185.80000p  699.7729m  426.8693u 
  185.90000p  699.7730m  426.8867u 
  186.00000p  699.7730m  426.9041u 
  186.10000p  699.7730m  426.9215u 
  186.20000p  699.7730m  426.9389u 
  186.30000p  699.7730m  426.9563u 
  186.40000p  699.7730m  426.9737u 
  186.50000p  699.7731m  426.9911u 
  186.60000p  699.7731m  427.0085u 
  186.70000p  699.7731m  427.0259u 
  186.80000p  699.7731m  427.0433u 
  186.90000p  699.7731m  427.0606u 
  187.00000p  699.7731m  427.0780u 
  187.10000p  699.7731m  427.0954u 
  187.20000p  699.7732m  427.1128u 
  187.30000p  699.7732m  427.1302u 
  187.40000p  699.7732m  427.1476u 
  187.50000p  699.7732m  427.1650u 
  187.60000p  699.7732m  427.1824u 
  187.70000p  699.7732m  427.1998u 
  187.80000p  699.7733m  427.2172u 
  187.90000p  699.7733m  427.2346u 
  188.00000p  699.7733m  427.2520u 
  188.10000p  699.7733m  427.2694u 
  188.20000p  699.7733m  427.2868u 
  188.30000p  699.7733m  427.3042u 
  188.40000p  699.7734m  427.3216u 
  188.50000p  699.7734m  427.3390u 
  188.60000p  699.7734m  427.3564u 
  188.70000p  699.7734m  427.3738u 
  188.80000p  699.7734m  427.3912u 
  188.90000p  699.7734m  427.4086u 
  189.00000p  699.7735m  427.4260u 
  189.10000p  699.7735m  427.4434u 
  189.20000p  699.7735m  427.4608u 
  189.30000p  699.7735m  427.4781u 
  189.40000p  699.7735m  427.4955u 
  189.50000p  699.7735m  427.5129u 
  189.60000p  699.7736m  427.5303u 
  189.70000p  699.7736m  427.5477u 
  189.80000p  699.7736m  427.5651u 
  189.90000p  699.7736m  427.5825u 
  190.00000p  699.7736m  427.5999u 
  190.10000p  699.7736m  427.6173u 
  190.20000p  699.7737m  427.6347u 
  190.30000p  699.7737m  427.6521u 
  190.40000p  699.7737m  427.6695u 
[...]
  950.00000p  699.7725m  470.1909u 
  950.10000p  699.7725m  467.8046u 
  950.20000p  699.7725m  465.4183u 
  950.30000p  699.7724m  463.0320u 
  950.40000p  699.7724m  460.6456u 
  950.50000p  699.7723m  458.2593u 
  950.60000p  699.7723m  455.8730u 
  950.70000p  699.7723m  453.4867u 
  950.80000p  699.7722m  451.1004u 
  950.90000p  699.7722m  448.7141u 
  951.00000p  699.7722m  446.3278u 
  951.10000p  699.7721m  443.9415u 
  951.20000p  699.7721m  441.5551u 
  951.30000p  699.7721m  439.1688u 
  951.40000p  699.7720m  436.7825u 
  951.50000p  699.7720m  434.3962u 
  951.60000p  699.7719m  432.0099u 
  951.70000p  699.7719m  429.6236u 
  951.80000p  699.7719m  427.2373u 
  951.90000p  699.7718m  424.8510u 
  952.00000p  699.7718m  422.4646u 
  952.10000p  699.7718m  421.5027u 
  952.20000p  699.7719m  421.7569u 
  952.30000p  699.7720m  422.0111u 
  952.40000p  699.7720m  422.2653u 
  952.50000p  699.7721m  422.5195u 
  952.60000p  699.7722m  422.7737u 
  952.70000p  699.7723m  423.0279u 
  952.80000p  699.7723m  423.2821u 
  952.90000p  699.7724m  423.5363u 
  953.00000p  699.7725m  423.7905u 
  953.10000p  699.7726m  424.0447u 
  953.20000p  699.7726m  424.2989u 
  953.30000p  699.7727m  424.5531u 
  953.40000p  699.7728m  424.8073u 
  953.50000p  699.7728m  425.0615u 
  953.60000p  699.7729m  425.3157u 
  953.70000p  699.7730m  425.5699u 
  953.80000p  699.7731m  425.8241u 
  953.90000p  699.7731m  426.0783u 
  954.00000p  699.7732m  426.3325u 
  954.10000p  699.7733m  426.5867u 
  954.20000p  699.7734m  426.8409u 
  954.30000p  699.7734m  427.0951u 
  954.40000p  699.7735m  427.3494u 
  954.50000p  699.7736m  427.6036u 
  954.60000p  699.7737m  427.8578u 
  954.70000p  699.7737m  428.1120u 
  954.80000p  699.7738m  428.3662u 
  954.90000p  699.7739m  428.6204u 
  955.00000p  699.7739m  428.8746u 
  955.10000p  699.7740m  429.1288u 
  955.20000p  699.7741m  429.3830u 
  955.30000p  699.7742m  429.6372u 
  955.40000p  699.7742m  429.8914u 
  955.50000p  699.7743m  430.1456u 
  955.60000p  699.7744m  430.3998u 
  955.70000p  699.7745m  430.6540u 
  955.80000p  699.7745m  430.9082u 
  955.90000p  699.7746m  431.1624u 
  956.00000p  699.7747m  431.4166u 
  956.10000p  699.7748m  431.6708u 
  956.20000p  699.7748m  431.8612u 
  956.30000p  699.7748m  431.8622u 
  956.40000p  699.7748m  431.8633u 
  956.50000p  699.7748m  431.8643u 
  956.60000p  699.7748m  431.8653u 
  956.70000p  699.7748m  431.8663u 
  956.80000p  699.7748m  431.8674u 
  956.90000p  699.7748m  431.8684u 
  957.00000p  699.7748m  431.8694u 
  957.10000p  699.7748m  431.8705u 
  957.20000p  699.7748m  431.8715u 
  957.30000p  699.7748m  431.8725u 
  957.40000p  699.7748m  431.8736u 
  957.50000p  699.7748m  431.8746u 
  957.60000p  699.7748m  431.8756u 
  957.70000p  699.7748m  431.8767u 
  957.80000p  699.7748m  431.8777u 
  957.90000p  699.7748m  431.8787u 
  958.00000p  699.7748m  431.8798u 
  958.10000p  699.7748m  431.8808u 
  958.20000p  699.7748m  431.8818u 
  958.30000p  699.7748m  431.8829u 
  958.40000p  699.7748m  431.8839u 
  958.50000p  699.7748m  431.8849u 
  958.60000p  699.7748m  431.8860u 
  958.70000p  699.7748m  431.8870u 
  958.80000p  699.7748m  431.8880u 
  958.90000p  699.7748m  431.8890u 
  959.00000p  699.7748m  431.8901u 
  959.10000p  699.7748m  431.8911u 
  959.20000p  699.7748m  431.8921u 
  959.30000p  699.7748m  431.8932u 
  959.40000p  699.7748m  431.8942u 
  959.50000p  699.7748m  431.8952u 
  959.60000p  699.7748m  431.8963u 
  959.70000p  699.7748m  431.8973u 
  959.80000p  699.7748m  431.8983u 
  959.90000p  699.7748m  431.8994u 
  960.00000p  699.7748m  431.9004u 
  960.10000p  699.7748m  431.9014u 
  960.20000p  699.7748m  431.9025u 
  960.30000p  699.7748m  431.9035u 
  960.40000p  699.7748m  431.9045u 
  960.50000p  699.7748m  431.9056u 
  960.60000p  699.7748m  431.9066u 
  960.70000p  699.7748m  431.9076u 
  960.80000p  699.7748m  431.9087u 
  960.90000p  699.7748m  431.9097u 
  961.00000p  699.7748m  431.9107u 
  961.10000p  699.7748m  431.9118u 
  961.20000p  699.7748m  431.9128u 
  961.30000p  699.7748m  431.9138u 
  961.40000p  699.7748m  431.9148u 
  961.50000p  699.7748m  431.9159u 
  961.60000p  699.7748m  431.9169u 
  961.70000p  699.7748m  431.9179u 
  961.80000p  699.7748m  431.9190u 
  961.90000p  699.7748m  431.9200u 
  962.00000p  699.7748m  431.9210u 
  962.10000p  699.7748m  431.9221u 
  962.20000p  699.7748m  431.9231u 
  962.30000p  699.7748m  431.9241u 
  962.40000p  699.7748m  431.9252u 
  962.50000p  699.7748m  431.9262u 
  962.60000p  699.7748m  431.9272u 
  962.70000p  699.7748m  431.9283u 
  962.80000p  699.7748m  431.9293u 
  962.90000p  699.7748m  431.9303u 
  963.00000p  699.7748m  431.9314u 
  963.10000p  699.7748m  431.9324u 
  963.20000p  699.7748m  431.9334u 
  963.30000p  699.7748m  431.9345u 
  963.40000p  699.7748m  431.9355u 
  963.50000p  699.7748m  431.9365u 
  963.60000p  699.7748m  431.9375u 
  963.70000p  699.7748m  431.9386u 
  963.80000p  699.7748m  431.9396u 
  963.90000p  699.7748m  431.9406u 
  964.00000p  699.7748m  431.9417u 
  964.10000p  699.7748m  431.9427u 
  964.20000p  699.7748m  431.9437u 
  964.30000p  699.7748m  431.9448u 
  964.40000p  699.7748m  431.9458u 
  964.50000p  699.7748m  431.9468u 
  964.60000p  699.7748m  431.9479u 
  964.70000p  699.7748m  431.9489u 
  964.80000p  699.7748m  431.9499u 
  964.90000p  699.7748m  431.9510u 
  965.00000p  699.7748m  431.9283u 
  965.10000p  699.7748m  431.8981u 
  965.20000p  699.7748m  431.8680u 
  965.30000p  699.7748m  431.8378u 
  965.40000p  699.7748m  431.8076u 
  965.50000p  699.7748m  431.7774u 
  965.60000p  699.7748m  431.7473u 
  965.70000p  699.7748m  431.7171u 
  965.80000p  699.7748m  431.6869u 
  965.90000p  699.7748m  431.6568u 
  966.00000p  699.7747m  431.6266u 
  966.10000p  699.7747m  431.5964u 
  966.20000p  699.7747m  431.5663u 
  966.30000p  699.7747m  431.5361u 
  966.40000p  699.7747m  431.5059u 
  966.50000p  699.7747m  431.4758u 
  966.60000p  699.7747m  431.4456u 
  966.70000p  699.7747m  431.4154u 
  966.80000p  699.7747m  431.3853u 
  966.90000p  699.7747m  431.3551u 
  967.00000p  699.7746m  431.3249u 
  967.10000p  699.7746m  431.2948u 
  967.20000p  699.7746m  431.2646u 
  967.30000p  699.7746m  431.2344u 
  967.40000p  699.7746m  431.2042u 
  967.50000p  699.7746m  431.1741u 
  967.60000p  699.7746m  431.1439u 
  967.70000p  699.7746m  431.1137u 
  967.80000p  699.7746m  431.0836u 
  967.90000p  699.7746m  431.0534u 
  968.00000p  699.7746m  431.0232u 
  968.10000p  699.7745m  430.9931u 
  968.20000p  699.7745m  430.9629u 
  968.30000p  699.7745m  430.9327u 
  968.40000p  699.7745m  430.9026u 
  968.50000p  699.7745m  430.8724u 
  968.60000p  699.7745m  430.8422u 
  968.70000p  699.7745m  430.8121u 
  968.80000p  699.7745m  430.7819u 
  968.90000p  699.7745m  430.7517u 
  969.00000p  699.7745m  430.7215u 
  969.10000p  699.7744m  430.6914u 
  969.20000p  699.7744m  430.6612u 
  969.30000p  699.7744m  430.6310u 
  969.40000p  699.7744m  430.6009u 
  969.50000p  699.7744m  430.5707u 
  969.60000p  699.7744m  430.5405u 
  969.70000p  699.7744m  430.5104u 
  969.80000p  699.7744m  430.4802u 
  969.90000p  699.7744m  430.4500u 
  970.00000p  699.7744m  430.4199u 
  970.10000p  699.7744m  430.3897u 
  970.20000p  699.7743m  430.3595u 
  970.30000p  699.7743m  430.3294u 
  970.40000p  699.7743m  430.2992u 
  970.50000p  699.7743m  430.2690u 
  970.60000p  699.7743m  430.2388u 
  970.70000p  699.7743m  430.2087u 
  970.80000p  699.7743m  430.1785u 
  970.90000p  699.7743m  430.1483u 
  971.00000p  699.7743m  430.1182u 
  971.10000p  699.7743m  430.0880u 
  971.20000p  699.7742m  430.0578u 
  971.30000p  699.7742m  430.0277u 
  971.40000p  699.7742m  429.9975u 
  971.50000p  699.7742m  429.9673u 
  971.60000p  699.7742m  429.9372u 
  971.70000p  699.7742m  429.9070u 
  971.80000p  699.7742m  429.8768u 
  971.90000p  699.7742m  429.8467u 
  972.00000p  699.7742m  429.8165u 
  972.10000p  699.7742m  429.7863u 
  972.20000p  699.7742m  429.7562u 
  972.30000p  699.7741m  429.7260u 
  972.40000p  699.7741m  429.6958u 
  972.50000p  699.7741m  429.6656u 
  972.60000p  699.7741m  429.6355u 
  972.70000p  699.7741m  429.6053u 
  972.80000p  699.7741m  429.5751u 
  972.90000p  699.7741m  429.5450u 
  973.00000p  699.7741m  429.5148u 
  973.10000p  699.7741m  429.4846u 
  973.20000p  699.7741m  429.4545u 
  973.30000p  699.7740m  429.4243u 
  973.40000p  699.7740m  429.3941u 
  973.50000p  699.7740m  429.3640u 
  973.60000p  699.7740m  429.3338u 
  973.70000p  699.7740m  429.3036u 
  973.80000p  699.7740m  429.2735u 
  973.90000p  699.7740m  429.2433u 
  974.00000p  699.7740m  429.2131u 
  974.10000p  699.7740m  429.1829u 
  974.20000p  699.7740m  429.1528u 
  974.30000p  699.7740m  429.1226u 
  974.40000p  699.7739m  429.0924u 
  974.50000p  699.7739m  429.0623u 
  974.60000p  699.7739m  429.0321u 
  974.70000p  699.7739m  429.0019u 
  974.80000p  699.7739m  428.9718u 
  974.90000p  699.7739m  428.9416u 
  975.00000p  699.7739m  428.9114u 
  975.10000p  699.7739m  428.8813u 
  975.20000p  699.7739m  428.8511u 
  975.30000p  699.7739m  428.8209u 
  975.40000p  699.7738m  428.7908u 
  975.50000p  699.7738m  428.7606u 
  975.60000p  699.7738m  428.7304u 
  975.70000p  699.7738m  428.7002u 
  975.80000p  699.7738m  428.6701u 
  975.90000p  699.7738m  428.6399u 
  976.00000p  699.7738m  428.6097u 
  976.10000p  699.7738m  428.5796u 
  976.20000p  699.7738m  428.5494u 
  976.30000p  699.7738m  428.5192u 
  976.40000p  699.7738m  428.4891u 
  976.50000p  699.7737m  428.4589u 
  976.60000p  699.7737m  428.4287u 
  976.70000p  699.7737m  428.3986u 
  976.80000p  699.7737m  428.3684u 
  976.90000p  699.7737m  428.3382u 
  977.00000p  699.7737m  428.3081u 
  977.10000p  699.7737m  428.2779u 
  977.20000p  699.7737m  428.2477u 
  977.30000p  699.7737m  428.2176u 
  977.40000p  699.7737m  428.1874u 
  977.50000p  699.7736m  428.1572u 
  977.60000p  699.7736m  428.1270u 
  977.70000p  699.7736m  428.0969u 
  977.80000p  699.7736m  428.0667u 
  977.90000p  699.7736m  428.0365u 
  978.00000p  699.7736m  428.0064u 
  978.10000p  699.7736m  427.9762u 
  978.20000p  699.7736m  427.9460u 
  978.30000p  699.7736m  427.9159u 
  978.40000p  699.7736m  427.8857u 
  978.50000p  699.7736m  427.8555u 
  978.60000p  699.7735m  427.8254u 
  978.70000p  699.7735m  427.7952u 
  978.80000p  699.7735m  427.7650u 
  978.90000p  699.7735m  427.7349u 
  979.00000p  699.7735m  427.7047u 
  979.10000p  699.7735m  427.6745u 
  979.20000p  699.7735m  427.6443u 
  979.30000p  699.7735m  427.6142u 
  979.40000p  699.7735m  427.5840u 
  979.50000p  699.7735m  427.5538u 
  979.60000p  699.7734m  427.5237u 
  979.70000p  699.7734m  427.4935u 
  979.80000p  699.7734m  427.4633u 
  979.90000p  699.7734m  427.4332u 
  980.00000p  699.7734m  427.4030u 
  980.10000p  699.7734m  427.3728u 
  980.20000p  699.7734m  427.3427u 
  980.30000p  699.7734m  427.3125u 
  980.40000p  699.7734m  427.2823u 
  980.50000p  699.7734m  427.2522u 
  980.60000p  699.7734m  427.2220u 
  980.70000p  699.7733m  427.1918u 
  980.80000p  699.7733m  427.1617u 
  980.90000p  699.7733m  427.1315u 
  981.00000p  699.7733m  427.1013u 
  981.10000p  699.7733m  427.0711u 
  981.20000p  699.7733m  427.0410u 
  981.30000p  699.7733m  427.0108u 
  981.40000p  699.7733m  426.9806u 
  981.50000p  699.7733m  426.9505u 
  981.60000p  699.7733m  426.9203u 
  981.70000p  699.7732m  426.8901u 
  981.80000p  699.7732m  426.8600u 
  981.90000p  699.7732m  426.8298u 
  982.00000p  699.7732m  426.7996u 
  982.10000p  699.7732m  426.7695u 
  982.20000p  699.7732m  426.7393u 
  982.30000p  699.7732m  426.7091u 
  982.40000p  699.7732m  426.6790u 
  982.50000p  699.7732m  426.6488u 
  982.60000p  699.7732m  426.6186u 
  982.70000p  699.7732m  426.5884u 
  982.80000p  699.7731m  426.5583u 
  982.90000p  699.7731m  426.5281u 
  983.00000p  699.7731m  426.4979u 
  983.10000p  699.7731m  426.4678u 
  983.20000p  699.7731m  426.4376u 
  983.30000p  699.7731m  426.4074u 
  983.40000p  699.7731m  426.3773u 
  983.50000p  699.7731m  426.3471u 
  983.60000p  699.7731m  426.3169u 
  983.70000p  699.7731m  426.2868u 
  983.80000p  699.7730m  426.2566u 
  983.90000p  699.7730m  426.2264u 
  984.00000p  699.7730m  426.1963u 
  984.10000p  699.7730m  426.1661u 
  984.20000p  699.7730m  426.1359u 
  984.30000p  699.7730m  426.1057u 
  984.40000p  699.7730m  426.0756u 
  984.50000p  699.7730m  426.0454u 
  984.60000p  699.7730m  426.0152u 
  984.70000p  699.7730m  425.9851u 
  984.80000p  699.7730m  425.9549u 
  984.90000p  699.7729m  425.9247u 
  985.00000p  699.7729m  425.8946u 
  985.10000p  699.7729m  425.8644u 
  985.20000p  699.7729m  425.8342u 
  985.30000p  699.7729m  425.8041u 
  985.40000p  699.7729m  425.7739u 
  985.50000p  699.7729m  425.7437u 
  985.60000p  699.7729m  425.7136u 
  985.70000p  699.7729m  425.6834u 
  985.80000p  699.7729m  425.6532u 
  985.90000p  699.7729m  425.6231u 
  986.00000p  699.7728m  425.5929u 
  986.10000p  699.7728m  425.5627u 
  986.20000p  699.7728m  425.5325u 
  986.30000p  699.7728m  425.5024u 
  986.40000p  699.7728m  425.4722u 
  986.50000p  699.7728m  425.4420u 
  986.60000p  699.7728m  425.4119u 
  986.70000p  699.7728m  425.3817u 
  986.80000p  699.7728m  425.3515u 
  986.90000p  699.7728m  425.3214u 
  987.00000p  699.7727m  425.2912u 
  987.10000p  699.7727m  425.2610u 
  987.20000p  699.7727m  425.2387u 
  987.30000p  699.7727m  425.2334u 
  987.40000p  699.7728m  425.2281u 
  987.50000p  699.7728m  425.2228u 
  987.60000p  699.7728m  425.2175u 
  987.70000p  699.7728m  425.2122u 
  987.80000p  699.7728m  425.2069u 
  987.90000p  699.7728m  425.2016u 
  988.00000p  699.7729m  425.1963u 
  988.10000p  699.7729m  425.1910u 
  988.20000p  699.7729m  425.1857u 
  988.30000p  699.7729m  425.1804u 
  988.40000p  699.7729m  425.1751u 
  988.50000p  699.7729m  425.1698u 
  988.60000p  699.7729m  425.1645u 
  988.70000p  699.7730m  425.1592u 
  988.80000p  699.7730m  425.1539u 
  988.90000p  699.7730m  425.1486u 
  989.00000p  699.7730m  425.1433u 
  989.10000p  699.7730m  425.1380u 
  989.20000p  699.7730m  425.1327u 
  989.30000p  699.7730m  425.1274u 
  989.40000p  699.7731m  425.1221u 
  989.50000p  699.7731m  425.1168u 
  989.60000p  699.7731m  425.1115u 
  989.70000p  699.7731m  425.1062u 
  989.80000p  699.7731m  425.1009u 
  989.90000p  699.7731m  425.0957u 
  990.00000p  699.7732m  425.0904u 
  990.10000p  699.7732m  425.0851u 
  990.20000p  699.7732m  425.0798u 
  990.30000p  699.7732m  425.0745u 
  990.40000p  699.7732m  425.0692u 
  990.50000p  699.7732m  425.0639u 
  990.60000p  699.7732m  425.0586u 
  990.70000p  699.7733m  425.0533u 
  990.80000p  699.7733m  425.0480u 
  990.90000p  699.7733m  425.0427u 
  991.00000p  699.7733m  425.0374u 
  991.10000p  699.7733m  425.0321u 
  991.20000p  699.7733m  425.0268u 
  991.30000p  699.7733m  425.0215u 
  991.40000p  699.7734m  425.0162u 
  991.50000p  699.7734m  425.0109u 
  991.60000p  699.7734m  425.0056u 
  991.70000p  699.7734m  425.0003u 
  991.80000p  699.7734m  424.9950u 
  991.90000p  699.7734m  424.9897u 
  992.00000p  699.7735m  424.9844u 
  992.10000p  699.7735m  424.9791u 
  992.20000p  699.7735m  424.9738u 
  992.30000p  699.7735m  424.9685u 
  992.40000p  699.7735m  424.9632u 
  992.50000p  699.7735m  424.9579u 
  992.60000p  699.7735m  424.9526u 
  992.70000p  699.7736m  424.9473u 
  992.80000p  699.7736m  424.9421u 
  992.90000p  699.7736m  424.9368u 
  993.00000p  699.7736m  424.9315u 
  993.10000p  699.7736m  424.9262u 
  993.20000p  699.7736m  424.9209u 
  993.30000p  699.7736m  424.9156u 
  993.40000p  699.7737m  424.9103u 
  993.50000p  699.7737m  424.9050u 
  993.60000p  699.7737m  424.8997u 
  993.70000p  699.7737m  424.8944u 
  993.80000p  699.7737m  424.8891u 
  993.90000p  699.7737m  424.8838u 
  994.00000p  699.7737m  424.8785u 
  994.10000p  699.7738m  424.8732u 
  994.20000p  699.7738m  424.8679u 
  994.30000p  699.7738m  424.8626u 
  994.40000p  699.7738m  424.8573u 
  994.50000p  699.7738m  424.8520u 
  994.60000p  699.7738m  424.8467u 
  994.70000p  699.7739m  424.8414u 
  994.80000p  699.7739m  424.8361u 
  994.90000p  699.7739m  424.8308u 
  995.00000p  699.7739m  424.8255u 
  995.10000p  699.7739m  424.8202u 
  995.20000p  699.7739m  424.8149u 
  995.30000p  699.7739m  424.8096u 
  995.40000p  699.7740m  424.8043u 
  995.50000p  699.7740m  424.7990u 
  995.60000p  699.7740m  424.7938u 
  995.70000p  699.7740m  424.7885u 
  995.80000p  699.7740m  424.7832u 
  995.90000p  699.7740m  424.7779u 
  996.00000p  699.7740m  424.7726u 
  996.10000p  699.7741m  424.7673u 
  996.20000p  699.7741m  424.7620u 
  996.30000p  699.7741m  424.7567u 
  996.40000p  699.7741m  424.7514u 
  996.50000p  699.7741m  424.7461u 
  996.60000p  699.7741m  424.7408u 
  996.70000p  699.7742m  424.7355u 
  996.80000p  699.7742m  424.7302u 
  996.90000p  699.7742m  424.7249u 
  997.00000p  699.7742m  424.7196u 
  997.10000p  699.7742m  424.7143u 
  997.20000p  699.7742m  424.7090u 
  997.30000p  699.7742m  424.7037u 
  997.40000p  699.7743m  424.6984u 
  997.50000p  699.7743m  424.6931u 
  997.60000p  699.7743m  424.6878u 
  997.70000p  699.7743m  424.6825u 
  997.80000p  699.7743m  424.6772u 
  997.90000p  699.7743m  424.6719u 
  998.00000p  699.7743m  424.6666u 
  998.10000p  699.7744m  424.6613u 
  998.20000p  699.7744m  424.6560u 
  998.30000p  699.7744m  424.6507u 
  998.40000p  699.7744m  424.6455u 
  998.50000p  699.7744m  424.6402u 
  998.60000p  699.7744m  424.6349u 
  998.70000p  699.7744m  424.6296u 
  998.80000p  699.7745m  424.6243u 
  998.90000p  699.7745m  424.6190u 
  999.00000p  699.7745m  424.6137u 
  999.10000p  699.7745m  424.6084u 
  999.20000p  699.7745m  424.6031u 
  999.30000p  699.7745m  424.5978u 
  999.40000p  699.7746m  424.5925u 
  999.50000p  699.7746m  424.5872u 
  999.60000p  699.7746m  424.5819u 
  999.70000p  699.7746m  424.5766u 
  999.80000p  699.7746m  424.5713u 
  999.90000p  699.7746m  424.5660u 
    1.00000n  699.7746m  424.5607u 
y

          ***** job concluded
 ******  
 * eda yan

 ****** job statistics summary tnom=  25.000 temp=  25.000 ******
  
 ******  Machine Information  ******
 CPU:
 model name	: Intel(R) Xeon(R) CPU E7- 8837  @ 2.67GHz
 cpu MHz	: 2663.941
  
 OS:
 Linux version 3.16.0-10-amd64 (debian-kernel@lists.debian.org) (gcc version 4.9.2 (Debian 4.9.2-10+deb8u2) ) #1 SMP Debian 3.16.81-1 (2020-01-17)


  ******  HSPICE Threads Information  ******

  Command Line Threads Count :     1
  Available CPU Count        :    32
  Actual Threads Count       :     1


  ******  Circuit Statistics  ******
  # nodes       =     116 # elements   =      34
  # resistors   =       1 # capacitors =       2 # inductors   =       0
  # mutual_inds =       0 # vccs       =       0 # vcvs        =       0
  # cccs        =       0 # ccvs       =       0 # volt_srcs   =       7
  # curr_srcs   =       0 # diodes     =       0 # bjts        =       0
  # jfets       =       0 # mosfets    =      24 # U elements  =       0
  # T elements  =       0 # W elements =       0 # B elements  =       0
  # S elements  =       0 # P elements =       0 # va device   =       0
  # vector_srcs =       0 # N elements =       0


  ******  Runtime Statistics (seconds)  ******

  analysis           time    # points   tot. iter  conv.iter
  op point           0.01           1           9
  transient          0.24       10001         680         256 rev=        14
  readin             0.04
  errchk             0.01
  setup              0.00
  output             0.00


           peak memory used        312.55 megabytes
           total cpu time            0.46 seconds
           total elapsed time        0.31 seconds
           job started at     02:02:53 05/12/2020
           job ended   at     02:02:53 05/12/2020



>info:         ***** hspice job concluded
 lic: Release hspice token(s) 
 lic: total license checkout elapse time:        0.07(s)
