Using: /opt/synopsys/hspice/O-2018.09-SP2-2/hspice/linux64/hspice c17.sp
 ****** HSPICE -- O-2018.09-SP2-2 linux64 (May  9 2019) ******                  
  Copyright (c) 1986 - 2020 by Synopsys, Inc. All Rights Reserved.              
  This software and the associated documentation are proprietary
  to Synopsys, Inc. This software may only be used in accordance
  with the terms and conditions of a written license agreement with
  Synopsys, Inc. All other use, reproduction, or distribution of
  this software is strictly prohibited.
  Input File: c17.sp                                                            
  Command line options: /opt/synopsys/hspice/O-2018.09-SP2-2/hspice/linux64/hspice c17.sp
  Start time: Tue May 12 02:03:16 2020
 lic:  
 lic: FLEXlm: SDK_11.7.3 
 lic: USER:   mitsushij            HOSTNAME: sahand 
 lic: HOSTID: "80c16e72eecb"       PID:      76315 
 lic: Using FLEXlm license file: 
 lic: 1720@ics-lic2.usc.edu 
 lic: Checkout 1 hspice 
 lic: License/Maintenance for hspice will expire on 30-jun-2021/2019.06 
 lic: 1(in_use)/50(total) FLOATING license(s) on SERVER 1720@ics-lic2.usc.edu 
 lic:   
1****** HSPICE -- O-2018.09-SP2-2 linux64 (May  9 2019) ******                  
 ******  
 * eda yan

 ****** circuit name directory
 circuit number to circuit name directory
   number circuitname                     definition         multiplier
        0 main circuit
        1 xnand2_1.                       nand2              1.00 
        2 xnand2_2.                       nand2              1.00 
        3 xnand2_3.                       nand2              1.00 
        4 xnand2_4.                       nand2              1.00 
        5 xnand2_5.                       nand2              1.00 
        6 xnand2_6.                       nand2              1.00 
  **info** (c17.sp:24) DC voltage reset to initial transient source value in source 0:vn1. new dc=0.0000D+00
  **warning** (nmos:mn1 (./gate_inventory_gen.sp:18)) Warning:  Acde = 0.231197 may be too small in BSIM4 model with w=3.2e-08 l=1.6e-08.
  

  **warning** the following singular supplies were terminated to 1 meg resistor 
          supply       node1            node2
(c17.sp:10)vlo                     0:lo               defined in subckt 0                     0:0                defined in subckt 0               
      

Element variations(Local):   element              parameter
 **info** set option symb=1 internally to help for convergence.
 *****************************************************************
 ******  option summary
 ******
 runlvl  = 3         bypass  = 2.0000    
 **info** dc convergence successful at Newton-Raphson method 
 ******  
 * eda yan

 ****** operating point information tnom=  25.000 temp=  25.000 ******
 ****** operating point status is all       simulation time is     0.     
    node    =voltage      node    =voltage      node    =voltage

 +0:hi      = 900.0000m 0:lo      =   0.      0:n1      =   0.     
 +0:n10     = 899.9938m 0:n11     = 899.9939m 0:n16     = 899.9799m
 +0:n19     = 899.9891m 0:n2      =   0.      0:n22     =   5.2101u
 +0:n23     =   5.2098u 0:n3      =   0.      0:n6      =   0.     
 +0:n7      =   0.      1:n1      =  52.9516m 2:n1      =  52.9516m
 +3:n1      =   1.2445u 4:n1      = 622.4075m 5:n1      =   3.8286u
 +6:n1      =   3.8283u


 **** voltage sources

 subckt                                                                    
 element  0:vhi      0:vlo      0:vn1      0:vn2      0:vn3      0:vn6     
  volts    900.0000m    0.         0.         0.         0.         0.     
  current -902.6514p    0.        41.8998p   41.9000p   83.7996p   41.8998p
  power    812.3863p    0.         0.         0.         0.         0.     

 subckt             
 element  0:vn7     
  volts      0.     
  current   41.8998p
  power      0.     

     total voltage source power dissipation=  812.3863p       watts




 **** mosfets


 subckt   xnand2_1   xnand2_1   xnand2_1   xnand2_1   xnand2_2   xnand2_2  
 element  1:mp2      1:mp1      1:mn1      1:mn2      2:mp2      2:mp1     
 model    0:pmos     0:pmos     0:nmos     0:nmos     0:pmos     0:pmos    
 region   Linear     Linear     Cutoff     Cutoff     Linear     Linear    
  id       -85.3043p  -85.3043p  127.0803f   12.4482f  -84.3225p  -84.3225p
  ibs     -1.177e-26 -1.177e-26  -52.9538f  5.783e-26 -1.177e-26 -1.177e-26
  ibd        8.5666a    8.5666a -909.9938f  -61.6783f    8.4680a    8.4680a
  vgs     -900.0000m -900.0000m  -52.9516m    0.      -900.0000m -900.0000m
  vds       -6.1667u   -6.1667u  847.0423m   52.9516m   -6.0957u   -6.0957u
  vbs        0.         0.       -52.9516m    0.         0.         0.     
  vth     -681.8334m -681.8334m  544.9000m  671.5852m -681.8334m -681.8334m
  vdsat   -223.2405m -223.2405m   43.2181m   43.7698m -223.2404m -223.2404m
  vod     -218.1666m -218.1666m -597.8516m -671.5852m -218.1666m -218.1666m
  beta      77.4017u   77.4017u  528.9543u  423.7186u   77.4017u   77.4017u
  gam eff  400.0000m  400.0000m  400.0000m  400.0000m  400.0000m  400.0000m
  gm       402.3646p  402.3646p    3.4571p  335.8388f  397.7339p  397.7339p
  gds       13.8331u   13.8331u  697.6665f  120.7312f   13.8331u   13.8331u
  gmb       91.2741p   91.2741p    1.0001p  105.2450f   90.2237p   90.2237p
  cdtot     33.2543a   33.2543a   17.5082a   22.8839a   33.2543a   33.2543a
  cgtot     28.4283a   28.4283a   15.1530a   18.2494a   28.4283a   28.4283a
  cstot     37.1828a   37.1828a   32.3045a   33.2133a   37.1828a   37.1828a
  cbtot     43.9374a   43.9374a   41.4635a   44.6516a   43.9374a   43.9374a
  cgs       17.0091a   17.0091a    7.1830a    7.6646a   17.0091a   17.0091a
  cgd       10.6808a   10.6808a    4.5682a    7.1829a   10.6808a   10.6808a



 subckt   xnand2_2   xnand2_2   xnand2_3   xnand2_3   xnand2_3   xnand2_3  
 element  2:mn1      2:mn2      3:mp2      3:mp1      3:mn1      3:mn2     
 model    0:nmos     0:nmos     0:pmos     0:pmos     0:nmos     0:nmos    
 region   Cutoff     Cutoff     Cutoff     Linear     Cutoff     Linear    
  id       127.0803f   12.4482f -3.751e-19 -278.2718p    1.0810p   63.9329p
  ibs      -52.9538f  5.783e-26  2.221e-28 -1.188e-26   -1.2447a  2.022e-26
  ibd     -909.9939f  -61.6783f   27.9434a   27.9434a -909.9799f   -1.7290a
  vgs      -52.9516m    0.        -6.0957u -900.0000m   -1.2445u  899.9939m
  vds      847.0423m   52.9516m  -20.1165u  -20.1165u  899.9786m    1.2445u
  vbs      -52.9516m    0.         0.         0.        -1.2445u    0.     
  vth      544.9000m  671.5852m -681.8296m -681.8296m  524.9596m  680.7513m
  vdsat     43.2181m   43.7698m  -46.7962m -223.2438m   43.0662m  196.1743m
  vod     -597.8516m -671.5852m  681.8235m -218.1704m -524.9608m  219.2426m
  beta     528.9543u  423.7186u   69.2338u   77.4020u  548.3096u  353.0839u
  gam eff  400.0000m  400.0000m  400.0000m  400.0000m  400.0000m  400.0000m
  gm         3.4571p  335.8388f   10.3987a    1.3126n   29.1416p  192.2466p
  gds      697.6666f  120.7312f   18.6445f   13.8328u    5.9843p   51.3703u
  gmb        1.0001p  105.2450f    3.1008a  297.7462p    8.4303p   53.3533p
  cdtot     17.5082a   22.8839a   23.6243a   33.2522a   17.5083a   36.1271a
  cgtot     15.1530a   18.2494a   18.2982a   28.4282a   15.6346a   30.4146a
  cstot     32.3045a   33.2133a   33.2054a   37.1839a   33.2133a   36.8387a
  cbtot     41.4635a   44.6516a   44.5018a   43.9372a   41.8907a   44.3134a
  cgs        7.1830a    7.6646a    7.6567a   17.0097a    7.6646a   17.7510a
  cgd        4.5682a    7.1829a    7.6564a   10.6801a    4.5682a   12.0534a



 subckt   xnand2_4   xnand2_4   xnand2_4   xnand2_4   xnand2_5   xnand2_5  
 element  4:mp2      4:mp1      4:mn1      4:mn2      5:mp2      5:mp1     
 model    0:pmos     0:pmos     0:nmos     0:nmos     0:pmos     0:pmos    
 region   Linear     Cutoff     Cutoff     Cutoff     Cutoff     Cutoff    
  id      -151.0368p -2.036e-19    1.5016p  246.8030f   -1.1823p   -1.1818p
  ibs     -1.188e-26  2.221e-28 -622.4100f  5.929e-25 -8.532e-25 -8.532e-25
  ibd       15.1674a   15.1674a -909.9891f -632.4075f  909.9948f  909.9948f
  vgs     -900.0000m   -6.0957u  277.5864m    0.       -20.1165u   -6.1667u
  vds      -10.9185u  -10.9185u  277.5816m  622.4075m -899.9948m -899.9948m
  vbs        0.         0.      -622.4075m    0.         0.         0.     
  vth     -681.8321m -681.8321m  744.4977m  573.0087m -436.4074m -436.4074m
  vdsat   -223.2416m  -46.7962m   44.1132m   43.3166m  -46.4773m  -46.4773m
  vod     -218.1679m  681.8260m -466.9112m -573.0087m  436.3873m  436.4012m
  beta      77.4018u   69.2336u  375.1399u  503.0351u   98.7210u   98.7210u
  gam eff  400.0000m  400.0000m  400.0000m  400.0000m  400.0000m  400.0000m
  gm       712.4138p    5.6442a   43.4967p    6.6561p   32.7275p   32.7149p
  gds       13.8330u   18.6459f    8.0937p    1.2688p   12.0541p   12.0495p
  gmb      161.6068p    1.6831a    8.6160p    1.9778p    8.4810p    8.4778p
  cdtot     33.2536a   23.6245a   20.6046a   18.4172a   17.5003a   17.5003a
  cgtot     28.4283a   18.2983a   19.1543a   15.8553a   15.2021a   15.2020a
  cstot     37.1832a   33.2054a   31.0248a   33.2133a   33.2055a   33.2054a
  cbtot     43.9373a   44.5019a   37.0157a   42.5790a   41.4739a   41.4740a
  cgs       17.0093a    7.6567a    9.2195a    7.6646a    7.6568a    7.6567a
  cgd       10.6806a    7.6565a    7.6646a    4.7888a    4.5602a    4.5602a



 subckt   xnand2_5   xnand2_5   xnand2_6   xnand2_6   xnand2_6   xnand2_6  
 element  5:mn1      5:mn2      6:mp2      6:mp1      6:mn1      6:mn2     
 model    0:nmos     0:nmos     0:pmos     0:pmos     0:nmos     0:nmos    
 region   Linear     Linear     Cutoff     Cutoff     Linear     Linear    
  id        70.9710p  196.6656p   -1.1820p   -1.1823p   70.9640p  196.6562p
  ibs       -3.8289a  2.021e-26 -8.532e-25 -8.532e-25   -3.8287a  2.022e-26
  ibd       -7.2379a   -5.3186a  909.9948f  909.9948f   -7.2374a   -5.3182a
  vgs      899.9900m  899.9799m  -10.9185u  -20.1165u  899.9761m  899.9891m
  vds        1.3816u    3.8286u -899.9948m -899.9948m    1.3815u    3.8283u
  vbs       -3.8286u    0.         0.         0.        -3.8283u    0.     
  vth      680.7521m  680.7508m -436.4074m -436.4074m  680.7521m  680.7508m
  vdsat    196.1713m  196.1652m  -46.4773m  -46.4773m  196.1620m  196.1714m
  vod      219.2380m  219.2290m  436.3965m  436.3873m  219.2240m  219.2382m
  beta     353.0847u  353.0878u   98.7210u   98.7210u  353.0885u  353.0853u
  gam eff  400.0000m  400.0000m  400.0000m  400.0000m  400.0000m  400.0000m
  gm       213.4167p  591.4319p   32.7192p   32.7275p  213.4152p  591.3675p
  gds       51.3695u   51.3677u   12.0510p   12.0541p   51.3673u   51.3691u
  gmb       59.2280p  164.1333p    8.4789p    8.4810p   59.2262p  164.1178p
  cdtot     36.1270a   36.1263a   17.5003a   17.5003a   36.1267a   36.1265a
  cgtot     30.4146a   30.4145a   15.2021a   15.2021a   30.4145a   30.4145a
  cstot     36.8387a   36.8391a   33.2055a   33.2055a   36.8388a   36.8390a
  cbtot     44.3133a   44.3134a   41.4740a   41.4739a   44.3133a   44.3134a
  cgs       17.7510a   17.7511a    7.6567a    7.6568a   17.7510a   17.7511a
  cgd       12.0534a   12.0532a    4.5602a    4.5602a   12.0533a   12.0532a



 ******
 * eda yan

 ****** transient analysis tnom=  25.000 temp=  25.000 ******
x

 time         voltage    voltage   
             n22        n23        
    0.          5.2101u    5.2098u 
    1.00000p    5.2101u    5.2098u 
    2.00000p    1.1457m  712.1147u 
    3.00000p    2.1293m    1.3614m 
    4.00000p    2.9237m    1.8983m 
    5.00000p    3.5144m    2.2967m 
    6.00000p    4.1050m    2.6952m 
    7.00000p    4.6956m    3.0937m 
    8.00000p    5.1664m    3.3909m 
    9.00000p    5.4512m    3.5310m 
   10.00000p    5.7360m    3.6711m 
   11.00000p    6.0208m    3.8113m 
   12.00000p    6.3056m    3.9514m 
   13.00000p    6.5904m    4.0915m 
   14.00000p    6.3600m    3.3557m 
   15.00000p    6.1028m    2.5744m 
   16.00000p    5.8456m    1.7931m 
   17.00000p    5.5884m    1.0118m 
   18.00000p    5.3312m  230.5031u 
   19.00000p    5.0740m -550.8077u 
   20.00000p    4.8168m   -1.3321m 
   21.00000p    4.5596m   -2.1134m 
   22.00000p    2.9607m   -3.7633m 
   23.00000p    1.3617m   -5.4132m 
   24.00000p -232.9688u   -7.0357m 
   25.00000p   -1.7716m   -8.4999m 
   26.00000p   -3.2327m   -9.8011m 
   27.00000p   -4.6937m  -11.1023m 
   28.00000p   -6.1037m  -12.3144m 
   29.00000p   -7.4304m  -13.3812m 
   30.00000p   -8.7572m  -14.4479m 
   31.00000p  -10.0839m  -15.5147m 
   32.00000p  -11.4095m  -16.5695m 
   33.00000p  -12.7255m  -17.5251m 
   34.00000p  -14.0415m  -18.4808m 
   35.00000p  -15.3575m  -19.4364m 
   36.00000p  -16.6735m  -20.3920m 
   37.00000p  -17.9894m  -21.3477m 
   38.00000p  -19.3068m  -22.3033m 
   39.00000p  -20.7162m  -23.2600m 
   40.00000p  -22.1255m  -24.2166m 
   41.00000p  -23.5349m  -25.1733m 
   42.00000p  -24.9442m  -26.1299m 
   43.00000p  -26.3535m  -27.0865m 
   44.00000p  -27.7209m  -27.9779m 
   45.00000p  -28.8897m  -28.5600m 
   46.00000p  -30.0584m  -29.1421m 
   47.00000p  -31.2272m  -29.7243m 
   48.00000p  -32.3959m  -30.3064m 
   49.00000p  -33.5647m  -30.8886m 
   50.00000p  -34.7334m  -31.4707m 
   51.00000p  -35.9022m  -32.0528m 
   52.00000p  -37.0710m  -32.6350m 
   53.00000p  -36.6613m  -31.4003m 
   54.00000p  -35.2098m  -28.9664m 
   55.00000p  -33.7582m  -26.5325m 
   56.00000p  -32.3067m  -24.0986m 
   57.00000p  -30.8552m  -21.6647m 
   58.00000p  -29.4037m  -19.2308m 
   59.00000p  -27.9521m  -16.7969m 
   60.00000p  -26.5006m  -14.3630m 
   61.00000p  -25.0491m  -11.9291m 
   62.00000p  -23.5976m   -9.4952m 
   63.00000p  -22.1461m   -7.0613m 
   64.00000p  -20.6945m   -4.6274m 
   65.00000p  -19.2430m   -2.1936m 
   66.00000p  -17.7915m  240.3412u 
   67.00000p  -16.3400m    2.6742m 
   68.00000p  -14.8884m    5.1081m 
   69.00000p  -13.4369m    7.5420m 
   70.00000p  -11.9854m    9.9759m 
   71.00000p  -10.5339m   12.4098m 
   72.00000p   -9.0824m   14.8437m 
   73.00000p   -7.6308m   17.2776m 
   74.00000p   -4.3356m   21.3613m 
   75.00000p  329.0869u   26.6703m 
   76.00000p    4.9937m   31.9792m 
   77.00000p    9.6584m   37.2882m 
   78.00000p   14.3230m   42.5972m 
   79.00000p   18.9876m   47.9062m 
   80.00000p   23.6523m   53.2151m 
   81.00000p   28.3169m   58.5241m 
   82.00000p   32.9816m   63.8331m 
   83.00000p   37.6462m   69.1421m 
   84.00000p   42.3108m   74.4511m 
   85.00000p   46.9755m   79.7600m 
   86.00000p   51.6401m   85.0690m 
   87.00000p   56.3048m   90.3780m 
   88.00000p   60.9694m   95.6870m 
   89.00000p   65.9018m  100.7797m 
   90.00000p   70.9501m  105.7790m 
   91.00000p   75.9984m  110.7782m 
   92.00000p   81.0466m  115.7774m 
   93.00000p   86.0949m  120.7766m 
   94.00000p   91.1432m  125.7758m 
   95.00000p   96.1915m  130.7750m 
   96.00000p  101.2398m  135.7743m 
   97.00000p  106.2881m  140.7735m 
   98.00000p  111.3363m  145.7727m 
   99.00000p  116.3846m  150.7719m 
  100.00000p  121.4329m  155.7711m 
  101.00000p  126.4812m  160.7704m 
  102.00000p  131.5295m  165.7696m 
  103.00000p  136.5778m  170.7688m 
  104.00000p  141.6260m  175.7680m 
  105.00000p  146.6743m  180.7672m 
  106.00000p  151.7226m  185.7664m 
  107.00000p  156.7709m  190.7657m 
  108.00000p  161.1291m  194.9576m 
  109.00000p  165.3568m  198.9969m 
  110.00000p  169.5845m  203.0362m 
  111.00000p  173.8121m  207.0755m 
  112.00000p  178.0398m  211.1148m 
  113.00000p  182.2675m  215.1541m 
  114.00000p  186.4952m  219.1933m 
  115.00000p  190.7229m  223.2326m 
  116.00000p  194.9505m  227.2719m 
  117.00000p  199.1782m  231.3112m 
  118.00000p  203.4059m  235.3505m 
  119.00000p  207.6336m  239.3898m 
  120.00000p  211.8613m  243.4291m 
  121.00000p  216.0890m  247.4683m 
  122.00000p  219.7679m  250.9052m 
  123.00000p  223.4468m  254.3420m 
  124.00000p  227.1142m  257.7598m 
  125.00000p  230.7315m  261.1156m 
  126.00000p  234.2738m  264.3884m 
  127.00000p  237.8162m  267.6612m 
  128.00000p  241.3586m  270.9339m 
  129.00000p  244.7598m  274.2298m 
  130.00000p  248.0782m  277.5391m 
  131.00000p  251.3965m  280.8485m 
  132.00000p  254.7148m  284.1579m 
  133.00000p  258.0332m  287.4673m 
  134.00000p  261.3515m  290.7766m 
  135.00000p  264.6698m  294.0860m 
  136.00000p  267.9881m  297.3954m 
  137.00000p  271.3065m  300.7047m 
  138.00000p  274.6248m  304.0141m 
  139.00000p  277.9431m  307.3235m 
  140.00000p  281.1661m  310.6995m 
  141.00000p  284.2930m  314.1427m 
  142.00000p  287.3957m  317.6809m 
  143.00000p  290.4765m  321.0309m 
  144.00000p  293.5417m  324.1145m 
  145.00000p  296.6006m  327.0895m 
  146.00000p  299.6596m  330.0646m 
  147.00000p  302.7360m  332.9744m 
  148.00000p  305.9606m  335.3311m 
  149.00000p  309.1853m  337.6878m 
  150.00000p  312.4099m  340.0445m 
  151.00000p  315.6346m  342.4012m 
  152.00000p  318.8592m  344.7579m 
  153.00000p  322.0839m  347.1145m 
  154.00000p  325.3085m  349.4712m 
  155.00000p  328.5332m  351.8279m 
  156.00000p  331.8136m  354.1121m 
  157.00000p  335.4305m  355.9592m 
  158.00000p  339.0474m  357.8063m 
  159.00000p  342.6643m  359.6534m 
  160.00000p  346.2811m  361.5004m 
  161.00000p  349.8980m  363.3475m 
  162.00000p  353.5149m  365.1946m 
  163.00000p  357.1799m  367.0103m 
  164.00000p  361.3266m  368.5116m 
  165.00000p  365.4734m  370.0128m 
  166.00000p  369.6202m  371.5140m 
  167.00000p  373.7670m  373.0153m 
  168.00000p  377.9137m  374.5165m 
  169.00000p  382.0605m  376.0177m 
  170.00000p  386.2073m  377.5190m 
  171.00000p  390.3541m  379.0202m 
  172.00000p  394.7234m  380.4020m 
  173.00000p  399.5311m  381.5489m 
  174.00000p  404.3387m  382.6957m 
  175.00000p  409.1463m  383.8425m 
  176.00000p  413.9539m  384.9893m 
  177.00000p  418.7616m  386.1362m 
  178.00000p  423.5692m  387.2830m 
  179.00000p  428.3768m  388.4298m 
  180.00000p  433.1844m  389.5767m 
  181.00000p  437.9921m  390.7235m 
  182.00000p  443.5870m  391.5293m 
  183.00000p  449.2056m  392.3249m 
  184.00000p  454.8243m  393.1204m 
  185.00000p  460.4430m  393.9159m 
  186.00000p  466.0616m  394.7115m 
  187.00000p  471.6803m  395.5070m 
  188.00000p  477.2990m  396.3025m 
  189.00000p  482.9176m  397.0981m 
  190.00000p  488.5363m  397.8936m 
  191.00000p  494.1550m  398.6892m 
  192.00000p  499.7736m  399.4847m 
  193.00000p  505.3923m  400.2802m 
  194.00000p  511.0110m  401.0758m 
  195.00000p  517.1770m  401.7005m 
  196.00000p  523.4788m  402.2829m 
  197.00000p  529.7805m  402.8653m 
  198.00000p  536.0822m  403.4477m 
  199.00000p  542.3840m  404.0301m 
  200.00000p  548.6857m  404.6125m 
  201.00000p  554.9874m  405.1949m 
  202.00000p  561.5824m  405.8069m 
  203.00000p  568.1773m  406.4189m 
  204.00000p  574.7795m  407.0315m 
  205.00000p  581.4374m  407.6194m 
  206.00000p  588.1245m  408.1920m 
  207.00000p  594.8115m  408.7645m 
  208.00000p  601.5876m  409.2546m 
  209.00000p  608.3824m  409.7272m 
  210.00000p  615.1773m  410.1998m 
  211.00000p  621.9721m  410.6724m 
  212.00000p  628.7670m  411.1450m 
  213.00000p  635.5618m  411.6176m 
  214.00000p  642.3566m  412.0902m 
  215.00000p  649.1515m  412.5628m 
  216.00000p  655.9463m  413.0355m 
  217.00000p  662.7801m  413.3955m 
  218.00000p  669.6198m  413.7382m 
  219.00000p  676.4596m  414.0809m 
  220.00000p  683.2993m  414.4237m 
  221.00000p  690.1390m  414.7664m 
  222.00000p  696.9131m  414.9016m 
  223.00000p  703.6831m  415.0318m 
  224.00000p  710.4060m  415.1214m 
  225.00000p  717.1143m  415.1987m 
  226.00000p  723.6611m  415.1270m 
  227.00000p  729.9851m  414.8497m 
  228.00000p  736.3092m  414.5724m 
  229.00000p  742.6332m  414.2951m 
  230.00000p  748.9572m  414.0178m 
  231.00000p  755.2812m  413.7405m 
  232.00000p  761.6052m  413.4632m 
  233.00000p  767.9292m  413.1859m 
  234.00000p  773.3470m  412.1641m 
  235.00000p  778.7549m  411.1343m 
  236.00000p  784.1629m  410.1045m 
  237.00000p  789.5709m  409.0747m 
  238.00000p  794.9788m  408.0448m 
  239.00000p  800.3868m  407.0150m 
  240.00000p  805.7948m  405.9852m 
  241.00000p  810.5454m  404.5432m 
  242.00000p  814.9554m  402.8715m 
  243.00000p  819.3520m  401.1932m 
  244.00000p  823.5392m  399.4013m 
  245.00000p  827.4961m  397.4821m 
  246.00000p  831.2423m  395.4463m 
  247.00000p  834.9885m  393.4105m 
  248.00000p  838.7347m  391.3747m 
  249.00000p  842.1147m  389.1489m 
  250.00000p  845.0052m  386.6690m 
  251.00000p  847.8957m  384.1891m 
  252.00000p  850.7862m  381.7091m 
  253.00000p  853.6767m  379.2292m 
  254.00000p  856.5671m  376.7493m 
  255.00000p  859.4576m  374.2694m 
  256.00000p  861.9386m  371.7268m 
  257.00000p  863.7994m  369.0893m 
  258.00000p  865.6602m  366.4518m 
  259.00000p  867.5210m  363.8143m 
  260.00000p  869.3818m  361.1767m 
  261.00000p  871.2426m  358.5392m 
  262.00000p  873.1034m  355.9017m 
  263.00000p  874.9642m  353.2642m 
  264.00000p  876.3454m  350.8594m 
  265.00000p  877.2571m  348.6823m 
  266.00000p  878.1688m  346.5052m 
  267.00000p  879.0805m  344.3281m 
  268.00000p  879.9922m  342.1510m 
  269.00000p  880.9039m  339.9739m 
  270.00000p  881.8156m  337.7968m 
  271.00000p  882.7273m  335.6197m 
  272.00000p  883.6391m  333.4426m 
  273.00000p  884.4686m  331.3835m 
  274.00000p  884.9097m  329.8814m 
  275.00000p  885.3509m  328.3794m 
  276.00000p  885.7920m  326.8774m 
  277.00000p  886.2332m  325.3754m 
  278.00000p  886.6744m  323.8734m 
  279.00000p  887.1155m  322.3714m 
  280.00000p  887.4809m  321.1772m 
  281.00000p  887.7891m  320.2150m 
  282.00000p  888.0974m  319.2527m 
  283.00000p  888.4056m  318.2905m 
  284.00000p  888.7139m  317.3282m 
  285.00000p  889.0222m  316.3660m 
  286.00000p  889.3304m  315.4038m 
  287.00000p  889.6387m  314.4415m 
  288.00000p  889.9469m  313.4793m 
  289.00000p  890.2552m  312.5170m 
  290.00000p  890.5634m  311.5548m 
  291.00000p  890.8717m  310.5925m 
  292.00000p  891.1306m  309.9860m 
  293.00000p  891.3195m  309.8851m 
  294.00000p  891.5084m  309.7843m 
  295.00000p  891.6973m  309.6834m 
  296.00000p  891.8861m  309.5825m 
  297.00000p  892.0750m  309.4816m 
  298.00000p  892.2639m  309.3807m 
  299.00000p  892.4527m  309.2798m 
  300.00000p  892.6416m  309.1789m 
  301.00000p  892.8001m  311.0868m 
  302.00000p  892.9486m  313.6458m 
  303.00000p  893.0972m  316.2047m 
  304.00000p  893.2458m  318.7637m 
  305.00000p  893.3943m  321.3227m 
  306.00000p  893.5429m  323.8817m 
  307.00000p  893.6915m  326.4406m 
  308.00000p  893.8400m  328.9996m 
  309.00000p  893.9886m  331.5586m 
  310.00000p  894.1372m  334.1175m 
  311.00000p  894.2858m  336.6765m 
  312.00000p  894.4343m  339.2355m 
  313.00000p  894.5829m  341.7944m 
  314.00000p  894.7315m  344.3534m 
  315.00000p  894.8565m  348.5833m 
  316.00000p  894.9623m  354.1788m 
  317.00000p  895.0680m  359.7742m 
  318.00000p  895.1738m  365.3696m 
  319.00000p  895.2796m  370.9651m 
  320.00000p  895.3854m  376.5605m 
  321.00000p  895.4911m  382.1559m 
  322.00000p  895.5923m  389.4933m 
  323.00000p  895.6934m  396.8307m 
  324.00000p  895.7897m  404.2256m 
  325.00000p  895.8826m  412.0358m 
  326.00000p  895.9764m  420.0499m 
  327.00000p  896.0702m  428.0640m 
  328.00000p  896.1572m  436.8190m 
  329.00000p  896.2431m  445.6792m 
  330.00000p  896.3291m  454.5394m 
  331.00000p  896.4151m  463.3997m 
  332.00000p  896.5010m  472.2599m 
  333.00000p  896.5870m  481.1202m 
  334.00000p  896.6730m  489.9804m 
  335.00000p  896.7573m  499.3481m 
  336.00000p  896.8405m  509.0768m 
  337.00000p  896.9237m  518.8055m 
  338.00000p  897.0069m  528.5342m 
  339.00000p  897.0901m  538.2628m 
  340.00000p  897.1733m  547.9915m 
  341.00000p  897.2565m  557.7202m 
  342.00000p  897.3326m  567.4350m 
  343.00000p  897.4087m  577.1498m 
  344.00000p  897.4847m  586.8637m 
  345.00000p  897.5526m  596.4367m 
  346.00000p  897.6160m  605.7132m 
  347.00000p  897.6794m  614.9898m 
  348.00000p  897.7381m  624.1209m 
  349.00000p  897.7847m  632.8801m 
  350.00000p  897.8312m  641.6392m 
  351.00000p  897.8778m  650.3984m 
  352.00000p  897.9243m  659.1576m 
  353.00000p  897.9627m  667.6593m 
  354.00000p  897.9863m  675.6899m 
  355.00000p  898.0099m  683.7205m 
  356.00000p  898.0335m  691.7511m 
  357.00000p  898.0571m  699.7817m 
  358.00000p  898.0807m  707.8123m 
  359.00000p  898.1043m  715.8429m 
  360.00000p  898.1279m  723.8735m 
  361.00000p  898.1550m  731.4854m 
  362.00000p  898.1881m  738.3651m 
  363.00000p  898.2213m  745.2448m 
  364.00000p  898.2544m  752.1245m 
  365.00000p  898.2875m  759.0043m 
  366.00000p  898.3206m  765.8840m 
  367.00000p  898.3538m  772.7637m 
  368.00000p  898.3869m  779.6434m 
  369.00000p  898.4200m  786.5231m 
  370.00000p  898.4579m  792.2970m 
  371.00000p  898.4985m  797.4725m 
  372.00000p  898.5390m  802.6479m 
  373.00000p  898.5796m  807.8234m 
  374.00000p  898.6201m  812.9989m 
  375.00000p  898.6607m  818.1743m 
  376.00000p  898.7012m  823.3498m 
  377.00000p  898.7418m  828.5253m 
  378.00000p  898.7817m  833.3621m 
  379.00000p  898.8191m  836.6293m 
  380.00000p  898.8564m  839.8964m 
  381.00000p  898.8937m  843.1636m 
  382.00000p  898.9310m  846.4308m 
  383.00000p  898.9683m  849.6980m 
  384.00000p  899.0056m  852.9651m 
  385.00000p  899.0429m  856.2323m 
  386.00000p  899.0802m  859.4995m 
  387.00000p  899.1175m  862.7666m 
  388.00000p  899.1547m  866.0070m 
  389.00000p  899.1831m  867.6204m 
  390.00000p  899.2115m  869.2337m 
  391.00000p  899.2399m  870.8471m 
  392.00000p  899.2683m  872.4605m 
  393.00000p  899.2967m  874.0738m 
  394.00000p  899.3251m  875.6872m 
  395.00000p  899.3535m  877.3006m 
  396.00000p  899.3819m  878.9139m 
  397.00000p  899.4102m  880.5273m 
  398.00000p  899.4386m  882.1407m 
  399.00000p  899.4670m  883.7540m 
  400.00000p  899.4954m  885.3674m 
  401.00000p  899.5238m  886.9808m 
  402.00000p  899.5553m  887.9366m 
  403.00000p  899.5867m  888.8924m 
  404.00000p  899.6137m  889.8169m 
  405.00000p  899.6362m  890.6063m 
  406.00000p  899.6576m  891.3617m 
  407.00000p  899.6791m  892.1172m 
  408.00000p  899.6982m  892.8027m 
  409.00000p  899.7093m  893.2509m 
  410.00000p  899.7204m  893.6991m 
  411.00000p  899.7315m  894.1473m 
  412.00000p  899.7426m  894.5955m 
  413.00000p  899.7537m  895.0437m 
  414.00000p  899.7648m  895.4919m 
  415.00000p  899.7759m  895.9401m 
  416.00000p  899.7870m  896.3883m 
  417.00000p  899.7981m  896.8365m 
  418.00000p  899.8092m  897.2847m 
  419.00000p  899.8203m  897.7329m 
  420.00000p  899.8278m  897.9983m 
  421.00000p  899.8344m  898.2210m 
  422.00000p  899.6538m  898.2019m 
  423.00000p  899.4604m  898.1364m 
  424.00000p  899.2864m  898.0263m 
  425.00000p  899.1476m  897.8559m 
  426.00000p  899.0088m  897.6855m 
  427.00000p  898.8700m  897.5151m 
  428.00000p  899.2550m  897.3253m 
  429.00000p  899.6744m  897.1342m 
  430.00000p  900.0938m  896.9432m 
  431.00000p  900.5132m  896.7521m 
  432.00000p  900.9326m  896.5610m 
  433.00000p  901.4610m  896.3773m 
  434.00000p  903.2533m  896.2794m 
  435.00000p  905.0455m  896.1815m 
  436.00000p  906.8377m  896.0836m 
  437.00000p  908.6299m  895.9857m 
  438.00000p  910.4221m  895.8878m 
  439.00000p  912.5426m  895.8151m 
  440.00000p  915.1013m  895.7762m 
  441.00000p  917.6600m  895.7372m 
  442.00000p  920.0652m  895.7321m 
  443.00000p  921.7892m  895.7001m 
  444.00000p  923.2146m  895.6538m 
  445.00000p  922.6314m  895.5850m 
  446.00000p  921.9480m  895.5151m 
  447.00000p  921.2647m  895.4452m 
  448.00000p  919.8782m  895.3706m 
  449.00000p  917.2180m  895.2875m 
  450.00000p  914.5578m  895.2043m 
  451.00000p  911.8976m  895.1212m 
  452.00000p  909.2374m  895.0380m 
  453.00000p  906.5772m  894.9549m 
  454.00000p  903.9170m  894.8717m 
  455.00000p  901.9138m  894.7955m 
  456.00000p  899.9398m  894.7196m 
  457.00000p  897.9658m  894.6437m 
  458.00000p  895.9918m  894.5678m 
  459.00000p  894.0178m  894.4919m 
  460.00000p  892.0438m  894.4160m 
  461.00000p  890.0699m  894.3401m 
  462.00000p  889.2046m  894.2764m 
  463.00000p  888.7498m  894.2173m 
  464.00000p  888.2950m  894.1582m 
  465.00000p  887.8402m  894.0991m 
  466.00000p  887.3854m  894.0400m 
  467.00000p  886.9307m  893.9809m 
  468.00000p  886.4759m  893.9218m 
  469.00000p  886.0211m  893.8627m 
  470.00000p  886.1180m  893.8300m 
  471.00000p  886.2620m  893.7997m 
  472.00000p  886.4061m  893.7694m 
  473.00000p  886.5501m  893.7390m 
  474.00000p  886.6942m  893.7087m 
  475.00000p  886.8383m  893.6783m 
  476.00000p  886.9823m  893.6480m 
  477.00000p  887.1264m  893.6176m 
  478.00000p  887.2705m  893.5873m 
  479.00000p  887.5406m  893.5781m 
  480.00000p  887.8452m  893.5748m 
  481.00000p  888.1497m  893.5714m 
  482.00000p  888.4543m  893.5681m 
  483.00000p  888.7589m  893.5648m 
  484.00000p  889.0635m  893.5614m 
  485.00000p  889.3681m  893.5581m 
  486.00000p  889.6726m  893.5547m 
  487.00000p  889.9772m  893.5514m 
  488.00000p  890.2471m  893.5664m 
  489.00000p  890.5143m  893.5828m 
  490.00000p  890.7815m  893.5993m 
  491.00000p  891.0487m  893.6157m 
  492.00000p  891.3159m  893.6321m 
  493.00000p  891.5832m  893.6486m 
  494.00000p  891.8504m  893.6650m 
  495.00000p  892.1176m  893.6815m 
  496.00000p  892.3848m  893.6979m 
  497.00000p  892.6520m  893.7143m 
  498.00000p  892.9192m  893.7308m 
  499.00000p  893.1362m  893.7703m 
  500.00000p  893.3131m  893.8282m 
  501.00000p  893.4901m  893.8862m 
  502.00000p  893.6670m  893.9441m 
  503.00000p  893.8439m  894.0020m 
  504.00000p  894.0209m  894.0600m 
  505.00000p  894.1978m  894.1179m 
  506.00000p  894.3748m  894.1758m 
  507.00000p  894.5517m  894.2338m 
  508.00000p  894.7287m  894.2917m 
  509.00000p  894.9056m  894.3496m 
  510.00000p  895.0826m  894.4076m 
  511.00000p  895.2595m  894.4655m 
  512.00000p  895.4365m  894.5234m 
  513.00000p  895.6134m  894.5814m 
  514.00000p  895.7515m  894.6714m 
  515.00000p  895.8598m  894.7862m 
  516.00000p  895.9681m  894.9010m 
  517.00000p  896.0764m  895.0158m 
  518.00000p  896.1846m  895.1305m 
  519.00000p  896.2929m  895.2453m 
  520.00000p  896.4012m  895.3601m 
  521.00000p  896.5095m  895.4749m 
  522.00000p  896.5970m  895.5913m 
  523.00000p  896.6846m  895.7078m 
  524.00000p  896.7644m  895.8326m 
  525.00000p  896.8368m  895.9952m 
  526.00000p  896.9092m  896.1783m 
  527.00000p  896.9816m  896.3614m 
  528.00000p  897.0542m  896.8421m 
  529.00000p  897.1270m  897.4644m 
  530.00000p  897.1997m  898.0866m 
  531.00000p  897.2724m  898.7089m 
  532.00000p  897.3452m  899.3311m 
  533.00000p  897.4179m  899.9534m 
  534.00000p  897.4906m  900.5756m 
  535.00000p  897.5633m  901.1979m 
  536.00000p  897.6360m  901.8602m 
  537.00000p  897.7071m  903.2391m 
  538.00000p  897.7783m  904.6180m 
  539.00000p  897.8495m  905.9969m 
  540.00000p  897.9206m  907.3758m 
  541.00000p  897.9918m  908.7547m 
  542.00000p  898.0373m  909.8331m 
  543.00000p  898.0828m  910.9116m 
  544.00000p  898.1283m  911.9900m 
  545.00000p  898.1721m  913.0230m 
  546.00000p  898.2013m  913.7206m 
  547.00000p  898.2263m  914.3249m 
  548.00000p  898.2499m  914.8799m 
  549.00000p  898.2594m  914.9745m 
  550.00000p  898.2689m  915.0690m 
  551.00000p  898.2784m  915.1635m 
  552.00000p  898.2879m  915.2581m 
  553.00000p  898.2964m  915.2637m 
  554.00000p  898.3004m  914.8389m 
  555.00000p  898.3044m  914.4140m 
  556.00000p  898.3083m  913.9891m 
  557.00000p  898.3123m  913.5643m 
  558.00000p  898.3162m  913.1394m 
  559.00000p  898.3202m  912.7145m 
  560.00000p  898.3242m  912.2897m 
  561.00000p  898.3281m  911.8648m 
  562.00000p  898.3321m  911.4400m 
  563.00000p  898.3367m  911.0102m 
  564.00000p  898.3513m  910.5102m 
  565.00000p  898.3659m  910.0101m 
  566.00000p  898.3804m  909.5100m 
  567.00000p  898.3950m  909.0100m 
  568.00000p  898.4096m  908.5099m 
  569.00000p  898.4242m  908.0099m 
  570.00000p  898.4387m  907.5098m 
  571.00000p  898.4533m  907.0098m 
  572.00000p  898.4679m  906.5097m 
  573.00000p  898.4894m  906.1462m 
  574.00000p  898.5130m  905.8250m 
  575.00000p  898.5367m  905.5037m 
  576.00000p  898.5603m  905.1825m 
  577.00000p  898.5840m  904.8613m 
  578.00000p  898.6076m  904.5401m 
  579.00000p  898.6313m  904.2188m 
  580.00000p  898.6550m  903.8976m 
  581.00000p  898.6786m  903.5764m 
  582.00000p  898.6981m  903.3817m 
  583.00000p  898.7172m  903.1975m 
  584.00000p  898.7363m  903.0134m 
  585.00000p  898.7554m  902.8292m 
  586.00000p  898.7746m  902.6451m 
  587.00000p  898.7937m  902.4609m 
  588.00000p  898.8128m  902.2768m 
  589.00000p  898.8319m  902.0926m 
  590.00000p  898.8511m  901.9085m 
  591.00000p  898.8696m  901.7334m 
  592.00000p  898.8828m  901.6448m 
  593.00000p  898.8959m  901.5562m 
  594.00000p  898.9091m  901.4675m 
  595.00000p  898.9223m  901.3789m 
  596.00000p  898.9354m  901.2903m 
  597.00000p  898.9486m  901.2017m 
  598.00000p  898.9618m  901.1131m 
  599.00000p  898.9749m  901.0245m 
  600.00000p  898.9881m  900.9358m 
  601.00000p  899.0012m  900.8472m 
  602.00000p  899.0112m  900.9201m 
  603.00000p  899.0212m  900.9929m 
  604.00000p  899.0330m  901.0641m 
  605.00000p  899.0440m  901.1165m 
  606.00000p  899.0549m  901.1656m 
  607.00000p  899.0657m  901.2148m 
  608.00000p  899.0747m  901.2382m 
  609.00000p  899.0826m  901.2471m 
  610.00000p  899.0906m  901.2559m 
  611.00000p  899.0985m  901.2648m 
  612.00000p  899.1064m  901.2736m 
  613.00000p  899.1144m  901.2825m 
  614.00000p  899.1223m  901.2913m 
  615.00000p  899.1303m  901.3002m 
  616.00000p  899.1382m  901.3091m 
  617.00000p  899.1461m  901.3179m 
  618.00000p  899.1525m  901.3224m 
  619.00000p  899.1560m  901.3191m 
  620.00000p  899.1596m  901.3157m 
  621.00000p  899.1631m  901.3124m 
  622.00000p  899.1573m  901.1511m 
  623.00000p  899.1518m  900.9758m 
  624.00000p  899.1473m  900.7925m 
  625.00000p  899.1464m  900.5617m 
  626.00000p  899.1479m  900.2982m 
  627.00000p  899.1494m  900.0347m 
  628.00000p  899.1509m  899.7712m 
  629.00000p  899.1562m  899.4990m 
  630.00000p  899.1636m  899.2220m 
  631.00000p  899.1711m  898.9450m 
  632.00000p  899.1785m  898.6679m 
  633.00000p  899.1859m  898.3909m 
  634.00000p  899.1933m  898.1138m 
  635.00000p  899.2007m  897.8368m 
  636.00000p  899.2083m  897.5622m 
  637.00000p  899.2207m  897.3649m 
  638.00000p  899.2331m  897.1676m 
  639.00000p  899.2455m  896.9703m 
  640.00000p  899.2579m  896.7730m 
  641.00000p  899.2704m  896.5757m 
  642.00000p  899.2906m  896.4480m 
  643.00000p  899.3084m  896.3162m 
  644.00000p  899.3216m  896.1794m 
  645.00000p  899.3348m  896.0427m 
  646.00000p  899.3391m  895.9194m 
  647.00000p  899.3433m  895.7964m 
  648.00000p  899.3474m  895.6733m 
  649.00000p  899.3516m  895.5503m 
  650.00000p  899.3558m  895.4273m 
  651.00000p  899.3600m  895.3042m 
  652.00000p  899.3641m  895.1812m 
  653.00000p  899.3661m  895.0872m 
  654.00000p  899.3673m  895.0034m 
  655.00000p  899.3685m  894.9196m 
  656.00000p  899.3698m  894.8358m 
  657.00000p  899.3710m  894.7520m 
  658.00000p  899.3722m  894.6682m 
  659.00000p  899.3734m  894.5844m 
  660.00000p  899.3746m  894.5006m 
  661.00000p  899.3758m  894.4168m 
  662.00000p  899.3770m  894.3330m 
  663.00000p  899.3783m  894.2637m 
  664.00000p  899.3795m  894.2270m 
  665.00000p  899.3808m  894.1902m 
  666.00000p  899.3820m  894.1535m 
  667.00000p  899.3833m  894.1167m 
  668.00000p  899.3845m  894.0800m 
  669.00000p  899.3858m  894.0433m 
  670.00000p  899.3870m  894.0065m 
  671.00000p  899.3883m  893.9698m 
  672.00000p  899.3895m  893.9330m 
  673.00000p  899.3908m  893.8963m 
  674.00000p  899.3920m  893.8595m 
  675.00000p  899.3933m  893.8228m 
  676.00000p  899.3947m  893.7892m 
  677.00000p  899.3978m  893.7875m 
  678.00000p  899.4009m  893.7857m 
  679.00000p  899.4040m  893.7839m 
  680.00000p  899.4071m  893.7822m 
  681.00000p  899.4102m  893.7804m 
  682.00000p  899.4133m  893.7786m 
  683.00000p  899.4164m  893.7769m 
  684.00000p  899.4194m  893.7751m 
  685.00000p  899.4225m  893.7733m 
  686.00000p  899.4256m  893.7716m 
  687.00000p  899.4287m  893.7698m 
  688.00000p  899.4318m  893.7680m 
  689.00000p  899.4349m  893.7663m 
  690.00000p  899.4380m  893.7645m 
  691.00000p  899.4411m  893.7627m 
  692.00000p  899.4442m  893.7610m 
  693.00000p  899.4474m  893.7859m 
  694.00000p  899.4509m  893.8465m 
  695.00000p  899.4544m  893.9072m 
  696.00000p  899.4578m  893.9678m 
  697.00000p  899.4613m  894.0285m 
  698.00000p  899.4647m  894.0891m 
  699.00000p  899.4682m  894.1498m 
  700.00000p  899.4717m  894.2104m 
  701.00000p  899.4751m  894.2710m 
  702.00000p  899.4786m  894.3317m 
  703.00000p  899.4821m  894.3923m 
  704.00000p  899.4855m  894.4530m 
  705.00000p  899.4890m  894.5136m 
  706.00000p  899.4924m  894.5743m 
  707.00000p  899.4959m  894.6349m 
  708.00000p  899.4994m  894.6956m 
  709.00000p  899.5028m  894.7562m 
  710.00000p  899.5063m  894.8169m 
  711.00000p  899.5098m  894.8775m 
  712.00000p  899.5132m  894.9382m 
  713.00000p  899.5167m  894.9988m 
  714.00000p  899.5201m  895.0595m 
  715.00000p  899.5236m  895.1201m 
  716.00000p  899.5271m  895.1808m 
  717.00000p  899.5305m  895.2414m 
  718.00000p  899.5340m  895.3021m 
  719.00000p  899.5375m  895.3627m 
  720.00000p  899.5409m  895.4234m 
  721.00000p  899.5444m  895.4840m 
  722.00000p  899.5483m  895.5814m 
  723.00000p  899.5523m  895.6787m 
  724.00000p  899.5547m  895.7969m 
  725.00000p  899.5565m  895.9343m 
  726.00000p  899.5596m  896.1581m 
  727.00000p  899.5628m  896.3818m 
  728.00000p  899.5659m  896.6055m 
  729.00000p  899.5691m  896.8293m 
  730.00000p  899.5725m  897.0660m 
  731.00000p  899.5884m  898.0285m 
  732.00000p  899.6044m  898.9909m 
  733.00000p  899.6204m  899.9533m 
  734.00000p  899.6364m  900.9157m 
  735.00000p  899.6524m  901.8781m 
  736.00000p  899.6684m  902.8405m 
  737.00000p  899.6844m  903.8029m 
  738.00000p  899.7004m  904.7653m 
  739.00000p  899.7163m  905.7277m 
  740.00000p  899.7390m  907.1121m 
  741.00000p  899.7641m  908.6499m 
  742.00000p  899.7952m  910.3092m 
  743.00000p  899.8109m  911.6956m 
  744.00000p  899.8150m  912.7706m 
  745.00000p  899.8081m  913.5281m 
  746.00000p  899.8011m  914.2856m 
  747.00000p  899.7942m  915.0432m 
  748.00000p  899.7810m  915.3879m 
  749.00000p  899.7618m  915.3390m 
  750.00000p  899.7426m  915.2901m 
  751.00000p  899.7233m  915.2412m 
  752.00000p  899.7041m  915.1923m 
  753.00000p  899.6849m  915.1434m 
  754.00000p  899.6657m  915.0945m 
  755.00000p  899.6465m  915.0456m 
  756.00000p  899.6279m  914.5962m 
  757.00000p  899.6094m  914.0701m 
  758.00000p  899.5909m  913.5439m 
  759.00000p  899.5724m  913.0178m 
  760.00000p  899.5539m  912.4917m 
  761.00000p  899.5353m  911.9655m 
  762.00000p  899.5168m  911.4394m 
  763.00000p  899.4983m  910.9132m 
  764.00000p  899.4808m  910.3895m 
  765.00000p  899.4813m  909.9093m 
  766.00000p  899.4817m  909.4290m 
  767.00000p  899.4821m  908.9488m 
  768.00000p  899.4826m  908.4685m 
  769.00000p  899.4830m  907.9883m 
  770.00000p  899.4835m  907.5080m 
  771.00000p  899.4839m  907.0277m 
  772.00000p  899.4843m  906.5475m 
  773.00000p  899.4848m  906.0672m 
  774.00000p  899.4905m  905.7224m 
  775.00000p  899.4977m  905.4178m 
  776.00000p  899.5050m  905.1131m 
  777.00000p  899.5123m  904.8085m 
  778.00000p  899.5195m  904.5038m 
  779.00000p  899.5268m  904.1992m 
  780.00000p  899.5341m  903.8946m 
  781.00000p  899.5414m  903.5899m 
  782.00000p  899.5486m  903.2969m 
  783.00000p  899.5554m  903.1275m 
  784.00000p  899.5622m  902.9581m 
  785.00000p  899.5690m  902.7887m 
  786.00000p  899.5758m  902.6194m 
  787.00000p  899.5826m  902.4500m 
  788.00000p  899.5894m  902.2806m 
  789.00000p  899.5962m  902.1112m 
  790.00000p  899.6030m  901.9418m 
  791.00000p  899.6098m  901.7724m 
  792.00000p  899.6166m  901.6030m 
  793.00000p  899.6213m  901.4900m 
  794.00000p  899.6250m  901.4080m 
  795.00000p  899.6287m  901.3259m 
  796.00000p  899.6324m  901.2439m 
  797.00000p  899.6360m  901.1618m 
  798.00000p  899.6397m  901.0797m 
  799.00000p  899.6434m  900.9977m 
  800.00000p  899.6471m  900.9156m 
  801.00000p  899.6507m  900.8336m 
  802.00000p  899.9416m  900.9574m 
  803.00000p  900.2324m  901.0812m 
  804.00000p  900.5221m  901.2058m 
  805.00000p  900.7581m  901.2977m 
  806.00000p  900.9676m  901.3730m 
  807.00000p  901.1770m  901.4483m 
  808.00000p  901.3138m  901.4902m 
  809.00000p  901.4056m  901.5115m 
  810.00000p  901.4975m  901.5329m 
  811.00000p  901.5893m  901.5543m 
  812.00000p  901.6812m  901.5756m 
  813.00000p  901.7730m  901.5970m 
  814.00000p  901.8649m  901.6183m 
  815.00000p  901.9567m  901.6397m 
  816.00000p  902.0486m  901.6611m 
  817.00000p  902.1404m  901.6824m 
  818.00000p  902.1713m  901.6532m 
  819.00000p  902.1925m  901.6160m 
  820.00000p  902.2138m  901.5788m 
  821.00000p  902.2351m  901.5417m 
  822.00000p  901.6535m  900.8515m 
  823.00000p  901.1316m  900.2045m 
  824.00000p  900.6492m  899.5780m 
  825.00000p  900.2098m  899.0012m 
  826.00000p  899.8166m  898.4780m 
  827.00000p  899.4235m  897.9549m 
  828.00000p  899.0304m  897.4317m 
  829.00000p  898.9166m  897.3984m 
  830.00000p  898.9816m  897.6787m 
  831.00000p  899.0466m  897.9589m 
  832.00000p  899.1116m  898.2392m 
  833.00000p  899.1766m  898.5195m 
  834.00000p  899.6768m  899.4490m 
  835.00000p  900.9134m  901.4770m 
  836.00000p  902.1501m  903.5050m 
  837.00000p  903.3867m  905.5329m 
  838.00000p  904.6233m  907.5609m 
  839.00000p  905.8600m  909.5889m 
  840.00000p  907.4752m  912.1927m 
  841.00000p  909.4554m  915.3516m 
  842.00000p  911.6543m  918.9683m 
  843.00000p  913.4891m  922.1412m 
  844.00000p  915.1050m  924.9248m 
  845.00000p  916.6282m  927.5423m 
  846.00000p  918.1513m  930.1598m 
  847.00000p  919.2760m  930.6122m 
  848.00000p  920.2220m  930.0941m 
  849.00000p  921.1681m  929.5761m 
  850.00000p  922.1141m  929.0580m 
  851.00000p  923.0601m  928.5399m 
  852.00000p  924.0061m  928.0218m 
  853.00000p  924.6971m  926.2726m 
  854.00000p  924.8700m  922.0221m 
  855.00000p  925.0430m  917.7716m 
  856.00000p  925.2159m  913.5211m 
  857.00000p  925.3888m  909.2707m 
  858.00000p  925.5617m  905.0202m 
  859.00000p  925.7346m  900.7697m 
  860.00000p  925.6722m  896.5224m 
  861.00000p  923.2551m  892.3071m 
  862.00000p  920.8379m  888.0918m 
  863.00000p  918.4207m  883.8764m 
  864.00000p  916.0036m  879.6611m 
  865.00000p  913.5864m  875.4457m 
  866.00000p  911.1692m  871.2304m 
  867.00000p  907.3614m  867.5434m 
  868.00000p  900.8248m  864.8930m 
  869.00000p  894.2882m  862.2426m 
  870.00000p  887.7516m  859.5922m 
  871.00000p  881.2150m  856.9418m 
  872.00000p  874.6783m  854.2914m 
  873.00000p  868.1417m  851.6410m 
  874.00000p  861.6051m  848.9906m 
  875.00000p  855.0685m  846.3402m 
  876.00000p  848.5408m  844.3929m 
  877.00000p  842.0138m  842.5063m 
  878.00000p  835.4868m  840.6198m 
  879.00000p  828.9598m  838.7332m 
  880.00000p  822.4329m  836.8466m 
  881.00000p  817.4314m  835.2023m 
  882.00000p  813.9062m  833.7925m 
  883.00000p  810.3811m  832.3828m 
  884.00000p  806.8559m  830.9731m 
  885.00000p  803.3308m  829.5633m 
  886.00000p  799.8056m  828.1536m 
  887.00000p  796.2805m  826.7438m 
  888.00000p  792.7553m  825.3341m 
  889.00000p  789.2301m  823.9243m 
  890.00000p  787.0625m  822.8608m 
  891.00000p  785.1550m  821.8636m 
  892.00000p  783.2475m  820.8664m 
  893.00000p  781.3400m  819.8692m 
  894.00000p  779.4325m  818.8720m 
  895.00000p  777.5250m  817.8748m 
  896.00000p  775.6175m  816.8776m 
  897.00000p  774.2034m  816.0268m 
  898.00000p  773.2217m  815.3042m 
  899.00000p  772.2400m  814.5817m 
  900.00000p  771.2583m  813.8592m 
  901.00000p  770.2766m  813.1366m 
  902.00000p  769.2949m  812.4141m 
  903.00000p  768.3132m  811.6916m 
  904.00000p  767.3315m  810.9691m 
  905.00000p  766.3498m  810.2465m 
  906.00000p  765.3681m  809.5240m 
  907.00000p  764.3864m  808.8015m 
  908.00000p  763.7027m  808.2513m 
  909.00000p  763.1377m  807.7697m 
  910.00000p  762.5726m  807.2880m 
  911.00000p  762.0075m  806.8064m 
  912.00000p  761.4424m  806.3248m 
  913.00000p  760.8774m  805.8432m 
  914.00000p  760.3123m  805.3616m 
  915.00000p  759.7472m  804.8799m 
  916.00000p  759.1822m  804.3983m 
  917.00000p  758.6171m  803.9167m 
  918.00000p  758.0520m  803.4351m 
  919.00000p  757.4870m  802.9534m 
  920.00000p  756.9219m  802.4718m 
  921.00000p  756.3568m  801.9902m 
  922.00000p  755.9386m  801.4998m 
  923.00000p  755.5203m  801.0093m 
  924.00000p  755.1032m  800.5140m 
  925.00000p  754.6993m  800.0148m 
  926.00000p  754.3188m  799.5173m 
  927.00000p  753.9383m  799.0198m 
  928.00000p  753.5577m  798.5223m 
  929.00000p  753.2751m  798.5521m 
  930.00000p  753.0456m  798.8677m 
  931.00000p  752.8161m  799.1833m 
  932.00000p  752.5866m  799.4989m 
  933.00000p  752.3570m  799.8145m 
  934.00000p  752.1275m  800.1301m 
  935.00000p  751.8980m  800.4457m 
  936.00000p  751.6685m  800.7613m 
  937.00000p  751.4389m  801.0769m 
  938.00000p  751.2094m  801.3925m 
  939.00000p  750.9799m  801.7081m 
  940.00000p  750.7941m  802.3009m 
  941.00000p  750.7158m  803.5742m 
  942.00000p  750.7305m  804.9005m 
  943.00000p  750.7451m  806.2268m 
  944.00000p  750.7792m  807.3769m 
  945.00000p  750.8352m  808.3793m 
  946.00000p  750.9853m  808.5525m 
  947.00000p  751.1700m  808.4204m 
  948.00000p  751.3546m  808.2884m 
  949.00000p  751.5586m  807.6712m 
  950.00000p  752.0876m  798.9056m 
  951.00000p  752.6166m  790.1400m 
  952.00000p  753.1456m  781.3744m 
  953.00000p  753.6746m  772.6088m 
  954.00000p  754.2036m  763.8432m 
  955.00000p  754.7326m  755.0776m 
  956.00000p  755.2615m  746.3120m 
  957.00000p  756.1678m  730.3237m 
  958.00000p  757.2123m  711.6893m 
  959.00000p  758.2567m  693.0549m 
  960.00000p  759.3012m  674.4206m 
  961.00000p  760.4703m  655.2953m 
  962.00000p  762.1313m  634.2322m 
  963.00000p  763.7922m  613.1691m 
  964.00000p  765.4532m  592.1059m 
  965.00000p  767.1142m  571.0428m 
  966.00000p  768.7752m  549.9796m 
  967.00000p  770.4362m  528.9165m 
  968.00000p  772.0972m  507.8534m 
  969.00000p  773.9315m  486.8836m 
  970.00000p  776.3033m  466.2037m 
  971.00000p  778.6751m  445.5237m 
  972.00000p  781.0469m  424.8437m 
  973.00000p  783.4187m  404.1638m 
  974.00000p  785.7906m  383.4838m 
  975.00000p  788.1624m  362.8038m 
  976.00000p  790.5342m  342.1238m 
  977.00000p  793.0505m  322.7425m 
  978.00000p  795.8374m  305.7942m 
  979.00000p  798.6244m  288.8460m 
  980.00000p  801.4113m  271.8977m 
  981.00000p  804.1982m  254.9494m 
  982.00000p  806.9852m  238.0012m 
  983.00000p  809.7721m  221.0529m 
  984.00000p  812.5591m  204.1047m 
  985.00000p  815.3460m  187.1564m 
  986.00000p  818.1329m  170.2082m 
  987.00000p  820.9199m  153.2599m 
  988.00000p  823.7068m  136.3117m 
  989.00000p  826.2954m  127.0691m 
  990.00000p  828.8697m  118.3843m 
  991.00000p  831.4439m  109.6995m 
  992.00000p  834.0182m  101.0148m 
  993.00000p  836.5925m   92.3300m 
  994.00000p  839.1667m   83.6452m 
  995.00000p  841.7410m   74.9604m 
  996.00000p  844.3152m   66.2756m 
  997.00000p  846.8895m   57.5908m 
  998.00000p  849.4637m   48.9060m 
  999.00000p  852.0380m   40.2212m 
    1.00000n  854.6123m   31.5364m 
y

          ***** job concluded
 ******  
 * eda yan

 ****** job statistics summary tnom=  25.000 temp=  25.000 ******
  
 ******  Machine Information  ******
 CPU:
 model name	: Intel(R) Xeon(R) CPU E7- 8837  @ 2.67GHz
 cpu MHz	: 2663.941
  
 OS:
 Linux version 3.16.0-10-amd64 (debian-kernel@lists.debian.org) (gcc version 4.9.2 (Debian 4.9.2-10+deb8u2) ) #1 SMP Debian 3.16.81-1 (2020-01-17)


  ******  HSPICE Threads Information  ******

  Command Line Threads Count :     1
  Available CPU Count        :    32
  Actual Threads Count       :     1


  ******  Circuit Statistics  ******
  # nodes       =     116 # elements   =      34
  # resistors   =       1 # capacitors =       2 # inductors   =       0
  # mutual_inds =       0 # vccs       =       0 # vcvs        =       0
  # cccs        =       0 # ccvs       =       0 # volt_srcs   =       7
  # curr_srcs   =       0 # diodes     =       0 # bjts        =       0
  # jfets       =       0 # mosfets    =      24 # U elements  =       0
  # T elements  =       0 # W elements =       0 # B elements  =       0
  # S elements  =       0 # P elements =       0 # va device   =       0
  # vector_srcs =       0 # N elements =       0


  ******  Runtime Statistics (seconds)  ******

  analysis           time    # points   tot. iter  conv.iter
  op point           0.00           1          10
  transient          0.22        1001         571         200 rev=        18
  readin             0.03
  errchk             0.01
  setup              0.01
  output             0.00


           peak memory used        311.57 megabytes
           total cpu time            0.29 seconds
           total elapsed time        0.22 seconds
           job started at     02:03:16 05/12/2020
           job ended   at     02:03:16 05/12/2020



>info:         ***** hspice job concluded
 lic: Release hspice token(s) 
 lic: total license checkout elapse time:        0.06(s)
