Using: /opt/synopsys/hspice/O-2018.09-SP2-2/hspice/linux64/hspice c17.sp
 ****** HSPICE -- O-2018.09-SP2-2 linux64 (May  9 2019) ******                  
  Copyright (c) 1986 - 2020 by Synopsys, Inc. All Rights Reserved.              
  This software and the associated documentation are proprietary
  to Synopsys, Inc. This software may only be used in accordance
  with the terms and conditions of a written license agreement with
  Synopsys, Inc. All other use, reproduction, or distribution of
  this software is strictly prohibited.
  Input File: c17.sp                                                            
  Command line options: /opt/synopsys/hspice/O-2018.09-SP2-2/hspice/linux64/hspice c17.sp
  Start time: Tue May 12 02:05:40 2020
 lic:  
 lic: FLEXlm: SDK_11.7.3 
 lic: USER:   mitsushij            HOSTNAME: sahand 
 lic: HOSTID: "80c16e72eecb"       PID:      76436 
 lic: Using FLEXlm license file: 
 lic: 1720@ics-lic2.usc.edu 
 lic: Checkout 1 hspice 
 lic: License/Maintenance for hspice will expire on 30-jun-2021/2019.06 
 lic: 1(in_use)/50(total) FLOATING license(s) on SERVER 1720@ics-lic2.usc.edu 
 lic:   
1****** HSPICE -- O-2018.09-SP2-2 linux64 (May  9 2019) ******                  
 ******  
 * eda yan

 ****** circuit name directory
 circuit number to circuit name directory
   number circuitname                     definition         multiplier
        0 main circuit
        1 xnand2_1.                       nand2              1.00 
        2 xnand2_2.                       nand2              1.00 
        3 xnand2_3.                       nand2              1.00 
        4 xnand2_4.                       nand2              1.00 
        5 xnand2_5.                       nand2              1.00 
        6 xnand2_6.                       nand2              1.00 
  **info** (c17.sp:24) DC voltage reset to initial transient source value in source 0:vn1. new dc=0.0000D+00
  **warning** (nmos:mn1 (./gate_inventory_gen.sp:18)) Warning:  Acde = 0.231197 may be too small in BSIM4 model with w=3.2e-08 l=1.6e-08.
  

  **warning** the following singular supplies were terminated to 1 meg resistor 
          supply       node1            node2
(c17.sp:10)vlo                     0:lo               defined in subckt 0                     0:0                defined in subckt 0               
      

Element variations(Local):   element              parameter
 **info** set option symb=1 internally to help for convergence.
 *****************************************************************
 ******  option summary
 ******
 runlvl  = 3         bypass  = 2.0000    
 **info** dc convergence successful at Newton-Raphson method 
 ******  
 * eda yan

 ****** operating point information tnom=  25.000 temp=  25.000 ******
 ****** operating point status is all       simulation time is     0.     
    node    =voltage      node    =voltage      node    =voltage

 +0:hi      = 900.0000m 0:lo      =   0.      0:n1      =   0.     
 +0:n10     = 899.9938m 0:n11     = 899.9939m 0:n16     = 899.9799m
 +0:n19     = 899.9891m 0:n2      =   0.      0:n22     =   5.2101u
 +0:n23     =   5.2098u 0:n3      =   0.      0:n6      =   0.     
 +0:n7      =   0.      1:n1      =  52.9516m 2:n1      =  52.9516m
 +3:n1      =   1.2445u 4:n1      = 622.4075m 5:n1      =   3.8286u
 +6:n1      =   3.8283u


 **** voltage sources

 subckt                                                                    
 element  0:vhi      0:vlo      0:vn1      0:vn2      0:vn3      0:vn6     
  volts    900.0000m    0.         0.         0.         0.         0.     
  current -902.6514p    0.        41.8998p   41.9000p   83.7996p   41.8998p
  power    812.3863p    0.         0.         0.         0.         0.     

 subckt             
 element  0:vn7     
  volts      0.     
  current   41.8998p
  power      0.     

     total voltage source power dissipation=  812.3863p       watts




 **** mosfets


 subckt   xnand2_1   xnand2_1   xnand2_1   xnand2_1   xnand2_2   xnand2_2  
 element  1:mp2      1:mp1      1:mn1      1:mn2      2:mp2      2:mp1     
 model    0:pmos     0:pmos     0:nmos     0:nmos     0:pmos     0:pmos    
 region   Linear     Linear     Cutoff     Cutoff     Linear     Linear    
  id       -85.3043p  -85.3043p  127.0803f   12.4482f  -84.3225p  -84.3225p
  ibs     -1.177e-26 -1.177e-26  -52.9538f  5.783e-26 -1.177e-26 -1.177e-26
  ibd        8.5666a    8.5666a -909.9938f  -61.6783f    8.4680a    8.4680a
  vgs     -900.0000m -900.0000m  -52.9516m    0.      -900.0000m -900.0000m
  vds       -6.1667u   -6.1667u  847.0423m   52.9516m   -6.0957u   -6.0957u
  vbs        0.         0.       -52.9516m    0.         0.         0.     
  vth     -681.8334m -681.8334m  544.9000m  671.5852m -681.8334m -681.8334m
  vdsat   -223.2405m -223.2405m   43.2181m   43.7698m -223.2404m -223.2404m
  vod     -218.1666m -218.1666m -597.8516m -671.5852m -218.1666m -218.1666m
  beta      77.4017u   77.4017u  528.9543u  423.7186u   77.4017u   77.4017u
  gam eff  400.0000m  400.0000m  400.0000m  400.0000m  400.0000m  400.0000m
  gm       402.3646p  402.3646p    3.4571p  335.8388f  397.7339p  397.7339p
  gds       13.8331u   13.8331u  697.6665f  120.7312f   13.8331u   13.8331u
  gmb       91.2741p   91.2741p    1.0001p  105.2450f   90.2237p   90.2237p
  cdtot     33.2543a   33.2543a   17.5082a   22.8839a   33.2543a   33.2543a
  cgtot     28.4283a   28.4283a   15.1530a   18.2494a   28.4283a   28.4283a
  cstot     37.1828a   37.1828a   32.3045a   33.2133a   37.1828a   37.1828a
  cbtot     43.9374a   43.9374a   41.4635a   44.6516a   43.9374a   43.9374a
  cgs       17.0091a   17.0091a    7.1830a    7.6646a   17.0091a   17.0091a
  cgd       10.6808a   10.6808a    4.5682a    7.1829a   10.6808a   10.6808a



 subckt   xnand2_2   xnand2_2   xnand2_3   xnand2_3   xnand2_3   xnand2_3  
 element  2:mn1      2:mn2      3:mp2      3:mp1      3:mn1      3:mn2     
 model    0:nmos     0:nmos     0:pmos     0:pmos     0:nmos     0:nmos    
 region   Cutoff     Cutoff     Cutoff     Linear     Cutoff     Linear    
  id       127.0803f   12.4482f -3.751e-19 -278.2718p    1.0810p   63.9329p
  ibs      -52.9538f  5.783e-26  2.221e-28 -1.188e-26   -1.2447a  2.022e-26
  ibd     -909.9939f  -61.6783f   27.9434a   27.9434a -909.9799f   -1.7290a
  vgs      -52.9516m    0.        -6.0957u -900.0000m   -1.2445u  899.9939m
  vds      847.0423m   52.9516m  -20.1165u  -20.1165u  899.9786m    1.2445u
  vbs      -52.9516m    0.         0.         0.        -1.2445u    0.     
  vth      544.9000m  671.5852m -681.8296m -681.8296m  524.9596m  680.7513m
  vdsat     43.2181m   43.7698m  -46.7962m -223.2438m   43.0662m  196.1743m
  vod     -597.8516m -671.5852m  681.8235m -218.1704m -524.9608m  219.2426m
  beta     528.9543u  423.7186u   69.2338u   77.4020u  548.3096u  353.0839u
  gam eff  400.0000m  400.0000m  400.0000m  400.0000m  400.0000m  400.0000m
  gm         3.4571p  335.8388f   10.3987a    1.3126n   29.1416p  192.2466p
  gds      697.6666f  120.7312f   18.6445f   13.8328u    5.9843p   51.3703u
  gmb        1.0001p  105.2450f    3.1008a  297.7462p    8.4303p   53.3533p
  cdtot     17.5082a   22.8839a   23.6243a   33.2522a   17.5083a   36.1271a
  cgtot     15.1530a   18.2494a   18.2982a   28.4282a   15.6346a   30.4146a
  cstot     32.3045a   33.2133a   33.2054a   37.1839a   33.2133a   36.8387a
  cbtot     41.4635a   44.6516a   44.5018a   43.9372a   41.8907a   44.3134a
  cgs        7.1830a    7.6646a    7.6567a   17.0097a    7.6646a   17.7510a
  cgd        4.5682a    7.1829a    7.6564a   10.6801a    4.5682a   12.0534a



 subckt   xnand2_4   xnand2_4   xnand2_4   xnand2_4   xnand2_5   xnand2_5  
 element  4:mp2      4:mp1      4:mn1      4:mn2      5:mp2      5:mp1     
 model    0:pmos     0:pmos     0:nmos     0:nmos     0:pmos     0:pmos    
 region   Linear     Cutoff     Cutoff     Cutoff     Cutoff     Cutoff    
  id      -151.0368p -2.036e-19    1.5016p  246.8030f   -1.1823p   -1.1818p
  ibs     -1.188e-26  2.221e-28 -622.4100f  5.929e-25 -8.532e-25 -8.532e-25
  ibd       15.1674a   15.1674a -909.9891f -632.4075f  909.9948f  909.9948f
  vgs     -900.0000m   -6.0957u  277.5864m    0.       -20.1165u   -6.1667u
  vds      -10.9185u  -10.9185u  277.5816m  622.4075m -899.9948m -899.9948m
  vbs        0.         0.      -622.4075m    0.         0.         0.     
  vth     -681.8321m -681.8321m  744.4977m  573.0087m -436.4074m -436.4074m
  vdsat   -223.2416m  -46.7962m   44.1132m   43.3166m  -46.4773m  -46.4773m
  vod     -218.1679m  681.8260m -466.9112m -573.0087m  436.3873m  436.4012m
  beta      77.4018u   69.2336u  375.1399u  503.0351u   98.7210u   98.7210u
  gam eff  400.0000m  400.0000m  400.0000m  400.0000m  400.0000m  400.0000m
  gm       712.4138p    5.6442a   43.4967p    6.6561p   32.7275p   32.7149p
  gds       13.8330u   18.6459f    8.0937p    1.2688p   12.0541p   12.0495p
  gmb      161.6068p    1.6831a    8.6160p    1.9778p    8.4810p    8.4778p
  cdtot     33.2536a   23.6245a   20.6046a   18.4172a   17.5003a   17.5003a
  cgtot     28.4283a   18.2983a   19.1543a   15.8553a   15.2021a   15.2020a
  cstot     37.1832a   33.2054a   31.0248a   33.2133a   33.2055a   33.2054a
  cbtot     43.9373a   44.5019a   37.0157a   42.5790a   41.4739a   41.4740a
  cgs       17.0093a    7.6567a    9.2195a    7.6646a    7.6568a    7.6567a
  cgd       10.6806a    7.6565a    7.6646a    4.7888a    4.5602a    4.5602a



 subckt   xnand2_5   xnand2_5   xnand2_6   xnand2_6   xnand2_6   xnand2_6  
 element  5:mn1      5:mn2      6:mp2      6:mp1      6:mn1      6:mn2     
 model    0:nmos     0:nmos     0:pmos     0:pmos     0:nmos     0:nmos    
 region   Linear     Linear     Cutoff     Cutoff     Linear     Linear    
  id        70.9710p  196.6656p   -1.1820p   -1.1823p   70.9640p  196.6562p
  ibs       -3.8289a  2.021e-26 -8.532e-25 -8.532e-25   -3.8287a  2.022e-26
  ibd       -7.2379a   -5.3186a  909.9948f  909.9948f   -7.2374a   -5.3182a
  vgs      899.9900m  899.9799m  -10.9185u  -20.1165u  899.9761m  899.9891m
  vds        1.3816u    3.8286u -899.9948m -899.9948m    1.3815u    3.8283u
  vbs       -3.8286u    0.         0.         0.        -3.8283u    0.     
  vth      680.7521m  680.7508m -436.4074m -436.4074m  680.7521m  680.7508m
  vdsat    196.1713m  196.1652m  -46.4773m  -46.4773m  196.1620m  196.1714m
  vod      219.2380m  219.2290m  436.3965m  436.3873m  219.2240m  219.2382m
  beta     353.0847u  353.0878u   98.7210u   98.7210u  353.0885u  353.0853u
  gam eff  400.0000m  400.0000m  400.0000m  400.0000m  400.0000m  400.0000m
  gm       213.4167p  591.4319p   32.7192p   32.7275p  213.4152p  591.3675p
  gds       51.3695u   51.3677u   12.0510p   12.0541p   51.3673u   51.3691u
  gmb       59.2280p  164.1333p    8.4789p    8.4810p   59.2262p  164.1178p
  cdtot     36.1270a   36.1263a   17.5003a   17.5003a   36.1267a   36.1265a
  cgtot     30.4146a   30.4145a   15.2021a   15.2021a   30.4145a   30.4145a
  cstot     36.8387a   36.8391a   33.2055a   33.2055a   36.8388a   36.8390a
  cbtot     44.3133a   44.3134a   41.4740a   41.4739a   44.3133a   44.3134a
  cgs       17.7510a   17.7511a    7.6567a    7.6568a   17.7510a   17.7511a
  cgd       12.0534a   12.0532a    4.5602a    4.5602a   12.0533a   12.0532a



 ******
 * eda yan

 ****** transient analysis tnom=  25.000 temp=  25.000 ******
x

 time         voltage    voltage   
             n22        n23        
    0.          5.2101u    5.2098u 
  100.00000f    5.2101u    5.2098u 
  200.00000f    5.2101u    5.2098u 
  300.00000f    5.2101u    5.2098u 
  400.00000f    5.2101u    5.2098u 
  500.00000f    5.2101u    5.2098u 
  600.00000f    5.2101u    5.2098u 
  700.00000f    5.2101u    5.2098u 
  800.00000f    5.2101u    5.2098u 
  900.00000f    5.2101u    5.2098u 
    1.00000p    5.2101u    5.2098u 
    1.10000p  119.2603u   75.9003u 
    1.20000p  233.3104u  146.5908u 
    1.30000p  347.3605u  217.2812u 
    1.40000p  461.4107u  287.9717u 
    1.50000p  575.4608u  358.6622u 
    1.60000p  689.5110u  429.3527u 
    1.70000p  803.5611u  500.0432u 
    1.80000p  917.6112u  570.7337u 
    1.90000p    1.0317m  641.4242u 
    2.00000p    1.1457m  712.1147u 
    2.10000p    1.2553m  782.3082u 
    2.20000p    1.3649m  852.5018u 
    2.30000p    1.4745m  922.6953u 
    2.40000p    1.5841m  992.8889u 
    2.50000p    1.6759m    1.0547m 
    2.60000p    1.7665m    1.1161m 
    2.70000p    1.8572m    1.1774m 
    2.80000p    1.9479m    1.2387m 
    2.90000p    2.0386m    1.3000m 
    3.00000p    2.1293m    1.3614m 
    3.10000p    2.2200m    1.4227m 
    3.20000p    2.3107m    1.4840m 
    3.30000p    2.4014m    1.5454m 
    3.40000p    2.4921m    1.6067m 
    3.50000p    2.5828m    1.6680m 
    3.60000p    2.6735m    1.7294m 
    3.70000p    2.7465m    1.7787m 
    3.80000p    2.8056m    1.8186m 
    3.90000p    2.8647m    1.8584m 
    4.00000p    2.9237m    1.8983m 
    4.10000p    2.9828m    1.9381m 
    4.20000p    3.0419m    1.9780m 
    4.30000p    3.1009m    2.0178m 
    4.40000p    3.1600m    2.0577m 
    4.50000p    3.2190m    2.0975m 
    4.60000p    3.2781m    2.1374m 
    4.70000p    3.3372m    2.1772m 
    4.80000p    3.3962m    2.2171m 
    4.90000p    3.4553m    2.2569m 
    5.00000p    3.5144m    2.2967m 
    5.10000p    3.5734m    2.3366m 
    5.20000p    3.6325m    2.3764m 
    5.30000p    3.6916m    2.4163m 
    5.40000p    3.7506m    2.4561m 
    5.50000p    3.8097m    2.4960m 
    5.60000p    3.8688m    2.5358m 
    5.70000p    3.9278m    2.5757m 
    5.80000p    3.9869m    2.6155m 
    5.90000p    4.0459m    2.6554m 
    6.00000p    4.1050m    2.6952m 
    6.10000p    4.1641m    2.7351m 
    6.20000p    4.2231m    2.7749m 
    6.30000p    4.2822m    2.8148m 
    6.40000p    4.3413m    2.8546m 
    6.50000p    4.4003m    2.8945m 
    6.60000p    4.4594m    2.9343m 
    6.70000p    4.5185m    2.9741m 
    6.80000p    4.5775m    3.0140m 
    6.90000p    4.6366m    3.0538m 
    7.00000p    4.6956m    3.0937m 
    7.10000p    4.7547m    3.1335m 
    7.20000p    4.8138m    3.1734m 
    7.30000p    4.8728m    3.2132m 
    7.40000p    4.9319m    3.2531m 
    7.50000p    4.9910m    3.2929m 
    7.60000p    5.0500m    3.3328m 
    7.70000p    5.0849m    3.3522m 
    7.80000p    5.1177m    3.3699m 
    7.90000p    5.1505m    3.3875m 
    8.00000p    5.1833m    3.4052m 
    8.10000p    5.2161m    3.4228m 
    8.20000p    5.2489m    3.4405m 
    8.30000p    5.2817m    3.4582m 
    8.40000p    5.3145m    3.4758m 
    8.50000p    5.3473m    3.4935m 
    8.60000p    5.3801m    3.5111m 
    8.70000p    5.4129m    3.5288m 
    8.80000p    5.4457m    3.5465m 
    8.90000p    5.4785m    3.5641m 
    9.00000p    5.5113m    3.5818m 
    9.10000p    5.5441m    3.5994m 
    9.20000p    5.5769m    3.6171m 
    9.30000p    5.6097m    3.6348m 
    9.40000p    5.6425m    3.6524m 
    9.50000p    5.6753m    3.6701m 
    9.60000p    5.7081m    3.6877m 
    9.70000p    5.7409m    3.7054m 
    9.80000p    5.7737m    3.7231m 
    9.90000p    5.8065m    3.7407m 
   10.00000p    5.8393m    3.7584m 
   10.10000p    5.8721m    3.7760m 
   10.20000p    5.9049m    3.7937m 
   10.30000p    5.9377m    3.8113m 
   10.40000p    5.9705m    3.8290m 
   10.50000p    6.0033m    3.8467m 
   10.60000p    6.0361m    3.8643m 
   10.70000p    6.0689m    3.8820m 
   10.80000p    6.1017m    3.8996m 
   10.90000p    6.1345m    3.9173m 
   11.00000p    6.1673m    3.9350m 
   11.10000p    6.2001m    3.9526m 
   11.20000p    6.2329m    3.9703m 
   11.30000p    6.2657m    3.9879m 
   11.40000p    6.2957m    4.0013m 
   11.50000p    6.2972m    3.9701m 
   11.60000p    6.2986m    3.9390m 
   11.70000p    6.3001m    3.9079m 
   11.80000p    6.3015m    3.8768m 
   11.90000p    6.3030m    3.8457m 
   12.00000p    6.3044m    3.8146m 
   12.10000p    6.3059m    3.7835m 
   12.20000p    6.3073m    3.7523m 
   12.30000p    6.3088m    3.7212m 
   12.40000p    6.3103m    3.6901m 
   12.50000p    6.3117m    3.6590m 
   12.60000p    6.3132m    3.6279m 
   12.70000p    6.3146m    3.5968m 
   12.80000p    6.3161m    3.5657m 
   12.90000p    6.3175m    3.5345m 
   13.00000p    6.3190m    3.5034m 
   13.10000p    6.3205m    3.4723m 
   13.20000p    6.3219m    3.4412m 
   13.30000p    6.3234m    3.4101m 
   13.40000p    6.3248m    3.3790m 
   13.50000p    6.3263m    3.3479m 
   13.60000p    6.3277m    3.3167m 
   13.70000p    6.3292m    3.2856m 
   13.80000p    6.3306m    3.2545m 
   13.90000p    6.3321m    3.2234m 
   14.00000p    6.3336m    3.1923m 
   14.10000p    6.3350m    3.1612m 
   14.20000p    6.3365m    3.1301m 
   14.30000p    6.3379m    3.0990m 
   14.40000p    6.3394m    3.0678m 
   14.50000p    6.3408m    3.0367m 
   14.60000p    6.3423m    3.0056m 
   14.70000p    6.3437m    2.9745m 
   14.80000p    6.3452m    2.9434m 
   14.90000p    6.3467m    2.9123m 
   15.00000p    6.3481m    2.8812m 
   15.10000p    6.3496m    2.8500m 
   15.20000p    6.3510m    2.8189m 
   15.30000p    6.3525m    2.7878m 
   15.40000p    6.3539m    2.7567m 
   15.50000p    6.3554m    2.7256m 
   15.60000p    6.3569m    2.6945m 
   15.70000p    6.3583m    2.6634m 
   15.80000p    6.3598m    2.6322m 
   15.90000p    6.3612m    2.6011m 
   16.00000p    6.3627m    2.5700m 
   16.10000p    6.3641m    2.5389m 
   16.20000p    6.3656m    2.5078m 
   16.30000p    6.3670m    2.4767m 
   16.40000p    6.3685m    2.4456m 
   16.50000p    6.3700m    2.4145m 
   16.60000p    6.3714m    2.3833m 
   16.70000p    6.3729m    2.3522m 
   16.80000p    6.3743m    2.3211m 
   16.90000p    6.3758m    2.2900m 
   17.00000p    6.3772m    2.2589m 
   17.10000p    6.3787m    2.2278m 
   17.20000p    6.3801m    2.1967m 
   17.30000p    6.3816m    2.1655m 
   17.40000p    6.3831m    2.1344m 
   17.50000p    6.3845m    2.1033m 
   17.60000p    6.3860m    2.0722m 
   17.70000p    6.3874m    2.0411m 
   17.80000p    6.3889m    2.0100m 
   17.90000p    6.3903m    1.9789m 
   18.00000p    6.3918m    1.9477m 
   18.10000p    6.3933m    1.9166m 
   18.20000p    6.3576m    1.8183m 
   18.30000p    6.3074m    1.6938m 
   18.40000p    6.2572m    1.5693m 
   18.50000p    6.2070m    1.4447m 
   18.60000p    6.1568m    1.3202m 
   18.70000p    6.1067m    1.1957m 
   18.80000p    6.0565m    1.0712m 
   18.90000p    6.0063m  946.6416u 
   19.00000p    5.9561m  822.1180u 
   19.10000p    5.9059m  697.5944u 
   19.20000p    5.8558m  573.0708u 
   19.30000p    5.8056m  448.5473u 
   19.40000p    5.7554m  324.0237u 
   19.50000p    5.7052m  199.5001u 
   19.60000p    5.6550m   74.9765u 
   19.70000p    5.6048m  -49.5471u 
   19.80000p    5.5547m -174.0707u 
   19.90000p    5.5045m -298.5943u 
   20.00000p    5.4543m -423.1179u 
   20.10000p    5.4041m -547.6415u 
   20.20000p    5.3539m -672.1651u 
   20.30000p    5.3038m -796.6887u 
   20.40000p    5.2536m -921.2123u 
   20.50000p    5.2034m   -1.0457m 
   20.60000p    5.1532m   -1.1703m 
   20.70000p    5.1030m   -1.2948m 
   20.80000p    5.0529m   -1.4193m 
   20.90000p    5.0027m   -1.5438m 
   21.00000p    4.9525m   -1.6684m 
   21.10000p    4.7662m   -1.8974m 
   21.20000p    4.5800m   -2.1264m 
   21.30000p    4.3937m   -2.3554m 
   21.40000p    4.2074m   -2.5844m 
   21.50000p    4.0212m   -2.8134m 
   21.60000p    3.8365m   -3.0382m 
   21.70000p    3.6522m   -3.2621m 
   21.80000p    3.4679m   -3.4860m 
   21.90000p    3.2836m   -3.7099m 
   22.00000p    3.0992m   -3.9338m 
   22.10000p    2.9230m   -4.1384m 
   22.20000p    2.7538m   -4.3262m 
   22.30000p    2.5845m   -4.5140m 
   22.40000p    2.4153m   -4.7018m 
   22.50000p    2.2460m   -4.8895m 
   22.60000p    2.0768m   -5.0773m 
   22.70000p    1.9076m   -5.2651m 
   22.80000p    1.7383m   -5.4529m 
   22.90000p    1.5691m   -5.6407m 
   23.00000p    1.3998m   -5.8284m 
   23.10000p    1.2306m   -6.0162m 
   23.20000p    1.0614m   -6.2040m 
   23.30000p  892.1121u   -6.3918m 
   23.40000p  722.8718u   -6.5796m 
   23.50000p  553.6314u   -6.7674m 
   23.60000p  384.3911u   -6.9551m 
   23.70000p  215.1508u   -7.1429m 
   23.80000p   62.2868u   -7.2967m 
   23.90000p  -81.1060u   -7.4308m 
   24.00000p -224.4987u   -7.5650m 
   24.10000p -367.8915u   -7.6991m 
   24.20000p -511.2843u   -7.8333m 
   24.30000p -654.6770u   -7.9674m 
   24.40000p -798.0698u   -8.1015m 
   24.50000p -941.4626u   -8.2357m 
   24.60000p   -1.0849m   -8.3698m 
   24.70000p   -1.2282m   -8.5039m 
   24.80000p   -1.3716m   -8.6381m 
   24.90000p   -1.5150m   -8.7722m 
   25.00000p   -1.6584m   -8.9063m 
   25.10000p   -1.8018m   -9.0405m 
   25.20000p   -1.9452m   -9.1746m 
   25.30000p   -2.0886m   -9.3088m 
   25.40000p   -2.2320m   -9.4429m 
   25.50000p   -2.3754m   -9.5770m 
   25.60000p   -2.5188m   -9.7112m 
   25.70000p   -2.6622m   -9.8453m 
   25.80000p   -2.8056m   -9.9794m 
   25.90000p   -2.9490m  -10.1136m 
   26.00000p   -3.0924m  -10.2477m 
   26.10000p   -3.2357m  -10.3818m 
   26.20000p   -3.3791m  -10.5160m 
   26.30000p   -3.5225m  -10.6501m 
   26.40000p   -3.6659m  -10.7842m 
   26.50000p   -3.8093m  -10.9184m 
   26.60000p   -3.9527m  -11.0525m 
   26.70000p   -4.0961m  -11.1867m 
   26.80000p   -4.2395m  -11.3208m 
   26.90000p   -4.3829m  -11.4549m 
   27.00000p   -4.5263m  -11.5891m 
   27.10000p   -4.6697m  -11.7232m 
   27.20000p   -4.8131m  -11.8573m 
   27.30000p   -4.9444m  -11.9637m 
   27.40000p   -5.0742m  -12.0665m 
   27.50000p   -5.2040m  -12.1693m 
   27.60000p   -5.3338m  -12.2720m 
   27.70000p   -5.4636m  -12.3748m 
   27.80000p   -5.5934m  -12.4775m 
   27.90000p   -5.7232m  -12.5803m 
   28.00000p   -5.8530m  -12.6830m 
   28.10000p   -5.9828m  -12.7858m 
   28.20000p   -6.1126m  -12.8885m 
   28.30000p   -6.2424m  -12.9913m 
   28.40000p   -6.3721m  -13.0940m 
   28.50000p   -6.5019m  -13.1968m 
   28.60000p   -6.6317m  -13.2996m 
   28.70000p   -6.7615m  -13.4023m 
   28.80000p   -6.8913m  -13.5051m 
   28.90000p   -7.0211m  -13.6078m 
   29.00000p   -7.1509m  -13.7106m 
   29.10000p   -7.2807m  -13.8133m 
   29.20000p   -7.4105m  -13.9161m 
   29.30000p   -7.5403m  -14.0188m 
   29.40000p   -7.6701m  -14.1216m 
   29.50000p   -7.7998m  -14.2243m 
   29.60000p   -7.9296m  -14.3271m 
   29.70000p   -8.0594m  -14.4298m 
   29.80000p   -8.1892m  -14.5326m 
   29.90000p   -8.3190m  -14.6354m 
   30.00000p   -8.4488m  -14.7381m 
   30.10000p   -8.5786m  -14.8409m 
   30.20000p   -8.7084m  -14.9436m 
   30.30000p   -8.8382m  -15.0464m 
   30.40000p   -8.9680m  -15.1491m 
   30.50000p   -9.0978m  -15.2519m 
   30.60000p   -9.2275m  -15.3546m 
   30.70000p   -9.3573m  -15.4574m 
   30.80000p   -9.4871m  -15.5601m 
   30.90000p   -9.6169m  -15.6629m 
   31.00000p   -9.7467m  -15.7657m 
   31.10000p   -9.8765m  -15.8684m 
   31.20000p  -10.0063m  -15.9712m 
   31.30000p  -10.1361m  -16.0739m 
   31.40000p  -10.2661m  -16.1692m 
   31.50000p  -10.3962m  -16.2637m 
   31.60000p  -10.5263m  -16.3583m 
   31.70000p  -10.6563m  -16.4529m 
   31.80000p  -10.7864m  -16.5475m 
   31.90000p  -10.9165m  -16.6421m 
   32.00000p  -11.0465m  -16.7367m 
   32.10000p  -11.1766m  -16.8313m 
   32.20000p  -11.3066m  -16.9258m 
   32.30000p  -11.4367m  -17.0204m 
   32.40000p  -11.5668m  -17.1150m 
   32.50000p  -11.6968m  -17.2096m 
   32.60000p  -11.8269m  -17.3042m 
   32.70000p  -11.9570m  -17.3988m 
   32.80000p  -12.0870m  -17.4933m 
   32.90000p  -12.2171m  -17.5879m 
   33.00000p  -12.3472m  -17.6825m 
   33.10000p  -12.4772m  -17.7771m 
   33.20000p  -12.6073m  -17.8717m 
   33.30000p  -12.7374m  -17.9663m 
   33.40000p  -12.8674m  -18.0609m 
   33.50000p  -12.9975m  -18.1554m 
   33.60000p  -13.1276m  -18.2500m 
   33.70000p  -13.2576m  -18.3446m 
   33.80000p  -13.3877m  -18.4392m 
   33.90000p  -13.5178m  -18.5338m 
   34.00000p  -13.6478m  -18.6284m 
   34.10000p  -13.7779m  -18.7229m 
   34.20000p  -13.9079m  -18.8175m 
   34.30000p  -14.0380m  -18.9121m 
   34.40000p  -14.1681m  -19.0067m 
   34.50000p  -14.2981m  -19.1013m 
   34.60000p  -14.4282m  -19.1959m 
   34.70000p  -14.5583m  -19.2905m 
   34.80000p  -14.6883m  -19.3850m 
   34.90000p  -14.8184m  -19.4796m 
   35.00000p  -14.9485m  -19.5742m 
   35.10000p  -15.0785m  -19.6688m 
   35.20000p  -15.2086m  -19.7634m 
   35.30000p  -15.3387m  -19.8580m 
   35.40000p  -15.4687m  -19.9525m 
   35.50000p  -15.5988m  -20.0471m 
   35.60000p  -15.7289m  -20.1417m 
   35.70000p  -15.8589m  -20.2363m 
   35.80000p  -15.9890m  -20.3309m 
   35.90000p  -16.1191m  -20.4255m 
   36.00000p  -16.2491m  -20.5201m 
   36.10000p  -16.3792m  -20.6146m 
   36.20000p  -16.5093m  -20.7092m 
   36.30000p  -16.6393m  -20.8038m 
   36.40000p  -16.7694m  -20.8984m 
   36.50000p  -16.8994m  -20.9930m 
   36.60000p  -17.0348m  -21.0881m 
   36.70000p  -17.1734m  -21.1836m 
   36.80000p  -17.3121m  -21.2791m 
   36.90000p  -17.4508m  -21.3746m 
   37.00000p  -17.5895m  -21.4701m 
   37.10000p  -17.7282m  -21.5656m 
   37.20000p  -17.8669m  -21.6611m 
   37.30000p  -18.0056m  -21.7566m 
   37.40000p  -18.1443m  -21.8521m 
   37.50000p  -18.2830m  -21.9476m 
   37.60000p  -18.4217m  -22.0431m 
   37.70000p  -18.5603m  -22.1386m 
   37.80000p  -18.6990m  -22.2341m 
   37.90000p  -18.8377m  -22.3296m 
   38.00000p  -18.9764m  -22.4251m 
   38.10000p  -19.1151m  -22.5206m 
   38.20000p  -19.2538m  -22.6161m 
   38.30000p  -19.3925m  -22.7115m 
   38.40000p  -19.5312m  -22.8070m 
   38.50000p  -19.6699m  -22.9025m 
   38.60000p  -19.8085m  -22.9980m 
   38.70000p  -19.9472m  -23.0935m 
   38.80000p  -20.0859m  -23.1890m 
   38.90000p  -20.2246m  -23.2845m 
   39.00000p  -20.3633m  -23.3800m 
   39.10000p  -20.5020m  -23.4755m 
   39.20000p  -20.6407m  -23.5710m 
   39.30000p  -20.7794m  -23.6665m 
   39.40000p  -20.9181m  -23.7620m 
   39.50000p  -21.0567m  -23.8575m 
   39.60000p  -21.1954m  -23.9530m 
   39.70000p  -21.3341m  -24.0485m 
   39.80000p  -21.4728m  -24.1440m 
   39.90000p  -21.6115m  -24.2395m 
   40.00000p  -21.7502m  -24.3350m 
   40.10000p  -21.8889m  -24.4305m 
   40.20000p  -22.0276m  -24.5260m 
   40.30000p  -22.1663m  -24.6215m 
   40.40000p  -22.3077m  -24.7173m 
   40.50000p  -22.4517m  -24.8136m 
   40.60000p  -22.5958m  -24.9098m 
   40.70000p  -22.7398m  -25.0060m 
   40.80000p  -22.8838m  -25.1023m 
   40.90000p  -23.0278m  -25.1985m 
   41.00000p  -23.1719m  -25.2947m 
   41.10000p  -23.3159m  -25.3910m 
   41.20000p  -23.4599m  -25.4872m 
   41.30000p  -23.6039m  -25.5834m 
   41.40000p  -23.7480m  -25.6796m 
   41.50000p  -23.8920m  -25.7759m 
   41.60000p  -24.0360m  -25.8721m 
   41.70000p  -24.1800m  -25.9683m 
   41.80000p  -24.3241m  -26.0646m 
   41.90000p  -24.4681m  -26.1608m 
   42.00000p  -24.6121m  -26.2570m 
   42.10000p  -24.7561m  -26.3532m 
   42.20000p  -24.9002m  -26.4495m 
   42.30000p  -25.0442m  -26.5457m 
   42.40000p  -25.1882m  -26.6419m 
   42.50000p  -25.3322m  -26.7382m 
   42.60000p  -25.4763m  -26.8344m 
   42.70000p  -25.6203m  -26.9306m 
   42.80000p  -25.7643m  -27.0269m 
   42.90000p  -25.9083m  -27.1231m 
   43.00000p  -26.0524m  -27.2193m 
   43.10000p  -26.1964m  -27.3155m 
   43.20000p  -26.3404m  -27.4118m 
   43.30000p  -26.4844m  -27.5080m 
   43.40000p  -26.6285m  -27.6042m 
   43.50000p  -26.7725m  -27.7005m 
   43.60000p  -26.9165m  -27.7967m 
   43.70000p  -27.0606m  -27.8929m 
   43.80000p  -27.2046m  -27.9891m 
   43.90000p  -27.3486m  -28.0854m 
   44.00000p  -27.4926m  -28.1816m 
   44.10000p  -27.6367m  -28.2778m 
   44.20000p  -27.7807m  -28.3741m 
   44.30000p  -27.9247m  -28.4703m 
   44.40000p  -28.0687m  -28.5665m 
   44.50000p  -28.2128m  -28.6627m 
   44.60000p  -28.3568m  -28.7590m 
   44.70000p  -28.5008m  -28.8552m 
   44.80000p  -28.6448m  -28.9514m 
   44.90000p  -28.7889m  -29.0477m 
   45.00000p  -28.9329m  -29.1439m 
   45.10000p  -29.0769m  -29.2401m 
   45.20000p  -29.2209m  -29.3364m 
   45.30000p  -29.3650m  -29.4326m 
   45.40000p  -29.5090m  -29.5288m 
   45.50000p  -29.6483m  -29.6187m 
   45.60000p  -29.7305m  -29.6326m 
   45.70000p  -29.8128m  -29.6465m 
   45.80000p  -29.8951m  -29.6605m 
   45.90000p  -29.9773m  -29.6744m 
   46.00000p  -30.0596m  -29.6883m 
   46.10000p  -30.1419m  -29.7022m 
   46.20000p  -30.2242m  -29.7161m 
   46.30000p  -30.3064m  -29.7300m 
   46.40000p  -30.3887m  -29.7439m 
   46.50000p  -30.4710m  -29.7579m 
   46.60000p  -30.5533m  -29.7718m 
   46.70000p  -30.6355m  -29.7857m 
   46.80000p  -30.7178m  -29.7996m 
   46.90000p  -30.8001m  -29.8135m 
   47.00000p  -30.8823m  -29.8274m 
   47.10000p  -30.9646m  -29.8413m 
   47.20000p  -31.0469m  -29.8553m 
   47.30000p  -31.1292m  -29.8692m 
   47.40000p  -31.2114m  -29.8831m 
   47.50000p  -31.2937m  -29.8970m 
   47.60000p  -31.3760m  -29.9109m 
   47.70000p  -31.4583m  -29.9248m 
   47.80000p  -31.5405m  -29.9387m 
   47.90000p  -31.6228m  -29.9526m 
   48.00000p  -31.7051m  -29.9666m 
   48.10000p  -31.7873m  -29.9805m 
   48.20000p  -31.8696m  -29.9944m 
   48.30000p  -31.9519m  -30.0083m 
   48.40000p  -32.0342m  -30.0222m 
   48.50000p  -32.1164m  -30.0361m 
   48.60000p  -32.1987m  -30.0500m 
   48.70000p  -32.2810m  -30.0640m 
   48.80000p  -32.3632m  -30.0779m 
   48.90000p  -32.4455m  -30.0918m 
   49.00000p  -32.5278m  -30.1057m 
   49.10000p  -32.6101m  -30.1196m 
   49.20000p  -32.6923m  -30.1335m 
   49.30000p  -32.7746m  -30.1474m 
   49.40000p  -32.8569m  -30.1614m 
   49.50000p  -32.9392m  -30.1753m 
   49.60000p  -33.0214m  -30.1892m 
   49.70000p  -33.1037m  -30.2031m 
   49.80000p  -33.1860m  -30.2170m 
   49.90000p  -33.2682m  -30.2309m 
   50.00000p  -33.3505m  -30.2448m 
   50.10000p  -33.4328m  -30.2588m 
   50.20000p  -33.5151m  -30.2727m 
   50.30000p  -33.5973m  -30.2866m 
   50.40000p  -33.6796m  -30.3005m 
   50.50000p  -33.7619m  -30.3144m 
   50.60000p  -33.8442m  -30.3283m 
   50.70000p  -33.9264m  -30.3422m 
   50.80000p  -34.0087m  -30.3562m 
   50.90000p  -34.0910m  -30.3701m 
   51.00000p  -34.1732m  -30.3840m 
   51.10000p  -34.2555m  -30.3979m 
   51.20000p  -34.3378m  -30.4118m 
   51.30000p  -34.4201m  -30.4257m 
   51.40000p  -34.5023m  -30.4396m 
   51.50000p  -34.5846m  -30.4536m 
   51.60000p  -34.6669m  -30.4675m 
   51.70000p  -34.7491m  -30.4814m 
   51.80000p  -34.8314m  -30.4953m 
   51.90000p  -34.9137m  -30.5092m 
   52.00000p  -34.9960m  -30.5231m 
   52.10000p  -35.0782m  -30.5370m 
   52.20000p  -35.1605m  -30.5510m 
   52.30000p  -35.2428m  -30.5649m 
   52.40000p  -35.3251m  -30.5788m 
   52.50000p  -35.4073m  -30.5927m 
   52.60000p  -35.4896m  -30.6066m 
   52.70000p  -35.5719m  -30.6205m 
   52.80000p  -35.6541m  -30.6344m 
   52.90000p  -35.7364m  -30.6484m 
   53.00000p  -35.8187m  -30.6623m 
   53.10000p  -35.9010m  -30.6762m 
   53.20000p  -35.9832m  -30.6901m 
   53.30000p  -36.0655m  -30.7040m 
   53.40000p  -36.1478m  -30.7179m 
   53.50000p  -36.2300m  -30.7318m 
   53.60000p  -36.3123m  -30.7458m 
   53.70000p  -36.3946m  -30.7597m 
   53.80000p  -36.4769m  -30.7736m 
   53.90000p  -36.5591m  -30.7875m 
   54.00000p  -36.6414m  -30.8014m 
   54.10000p  -36.7237m  -30.8153m 
   54.20000p  -36.8060m  -30.8292m 
   54.30000p  -36.8882m  -30.8432m 
   54.40000p  -36.9705m  -30.8571m 
   54.50000p  -37.0528m  -30.8710m 
   54.60000p  -37.1350m  -30.8849m 
   54.70000p  -37.2173m  -30.8988m 
   54.80000p  -37.2996m  -30.9127m 
   54.90000p  -37.3819m  -30.9266m 
   55.00000p  -37.4641m  -30.9406m 
   55.10000p  -37.5464m  -30.9545m 
   55.20000p  -37.6287m  -30.9684m 
   55.30000p  -37.7110m  -30.9823m 
   55.40000p  -37.7932m  -30.9962m 
   55.50000p  -37.8755m  -31.0101m 
   55.60000p  -37.9578m  -31.0240m 
   55.70000p  -38.0400m  -31.0380m 
   55.80000p  -38.1223m  -31.0519m 
   55.90000p  -38.2046m  -31.0658m 
   56.00000p  -38.2869m  -31.0797m 
   56.10000p  -38.3691m  -31.0936m 
   56.20000p  -38.4514m  -31.1075m 
   56.30000p  -38.5337m  -31.1214m 
   56.40000p  -38.5942m  -31.1094m 
   56.50000p  -38.4818m  -30.8903m 
   56.60000p  -38.3693m  -30.6712m 
   56.70000p  -38.2569m  -30.4521m 
   56.80000p  -38.1444m  -30.2331m 
   56.90000p  -38.0320m  -30.0140m 
   57.00000p  -37.9195m  -29.7949m 
   57.10000p  -37.8070m  -29.5758m 
   57.20000p  -37.6946m  -29.3567m 
   57.30000p  -37.5821m  -29.1377m 
   57.40000p  -37.4697m  -28.9186m 
   57.50000p  -37.3572m  -28.6995m 
   57.60000p  -37.2448m  -28.4804m 
   57.70000p  -37.1323m  -28.2614m 
   57.80000p  -37.0198m  -28.0423m 
   57.90000p  -36.9074m  -27.8232m 
   58.00000p  -36.7949m  -27.6041m 
   58.10000p  -36.6825m  -27.3850m 
   58.20000p  -36.5700m  -27.1660m 
   58.30000p  -36.4576m  -26.9469m 
   58.40000p  -36.3451m  -26.7278m 
   58.50000p  -36.2327m  -26.5087m 
   58.60000p  -36.1202m  -26.2897m 
   58.70000p  -36.0077m  -26.0706m 
   58.80000p  -35.8953m  -25.8515m 
   58.90000p  -35.7828m  -25.6324m 
   59.00000p  -35.6704m  -25.4133m 
   59.10000p  -35.5579m  -25.1943m 
   59.20000p  -35.4455m  -24.9752m 
   59.30000p  -35.3330m  -24.7561m 
   59.40000p  -35.2206m  -24.5370m 
   59.50000p  -35.1081m  -24.3180m 
   59.60000p  -34.9956m  -24.0989m 
   59.70000p  -34.8832m  -23.8798m 
   59.80000p  -34.7707m  -23.6607m 
   59.90000p  -34.6583m  -23.4416m 
   60.00000p  -34.5458m  -23.2226m 
   60.10000p  -34.4334m  -23.0035m 
   60.20000p  -34.3209m  -22.7844m 
   60.30000p  -34.2085m  -22.5653m 
   60.40000p  -34.0960m  -22.3463m 
   60.50000p  -33.9835m  -22.1272m 
   60.60000p  -33.8711m  -21.9081m 
   60.70000p  -33.7586m  -21.6890m 
   60.80000p  -33.6462m  -21.4699m 
   60.90000p  -33.5337m  -21.2509m 
   61.00000p  -33.4213m  -21.0318m 
   61.10000p  -33.3088m  -20.8127m 
   61.20000p  -33.1964m  -20.5936m 
   61.30000p  -33.0839m  -20.3746m 
   61.40000p  -32.9714m  -20.1555m 
   61.50000p  -32.8590m  -19.9364m 
   61.60000p  -32.7465m  -19.7173m 
   61.70000p  -32.6341m  -19.4982m 
   61.80000p  -32.5216m  -19.2792m 
   61.90000p  -32.4092m  -19.0601m 
   62.00000p  -32.2967m  -18.8410m 
   62.10000p  -32.1842m  -18.6219m 
   62.20000p  -32.0718m  -18.4029m 
   62.30000p  -31.9593m  -18.1838m 
   62.40000p  -31.8469m  -17.9647m 
   62.50000p  -31.7344m  -17.7456m 
   62.60000p  -31.6220m  -17.5265m 
   62.70000p  -31.5095m  -17.3075m 
   62.80000p  -31.3971m  -17.0884m 
   62.90000p  -31.2846m  -16.8693m 
   63.00000p  -31.1721m  -16.6502m 
   63.10000p  -31.0597m  -16.4312m 
   63.20000p  -30.9472m  -16.2121m 
   63.30000p  -30.8348m  -15.9930m 
   63.40000p  -30.7223m  -15.7739m 
   63.50000p  -30.6099m  -15.5548m 
   63.60000p  -30.4974m  -15.3358m 
   63.70000p  -30.3850m  -15.1167m 
   63.80000p  -30.2725m  -14.8976m 
   63.90000p  -30.1600m  -14.6785m 
   64.00000p  -30.0476m  -14.4595m 
   64.10000p  -29.9351m  -14.2404m 
   64.20000p  -29.8227m  -14.0213m 
   64.30000p  -29.7102m  -13.8022m 
   64.40000p  -29.5978m  -13.5831m 
   64.50000p  -29.4853m  -13.3641m 
   64.60000p  -29.3729m  -13.1450m 
   64.70000p  -29.2604m  -12.9259m 
   64.80000p  -29.1479m  -12.7068m 
   64.90000p  -29.0355m  -12.4878m 
   65.00000p  -28.9230m  -12.2687m 
   65.10000p  -28.8106m  -12.0496m 
   65.20000p  -28.6981m  -11.8305m 
   65.30000p  -28.5857m  -11.6114m 
   65.40000p  -28.4732m  -11.3924m 
   65.50000p  -28.3607m  -11.1733m 
   65.60000p  -28.2483m  -10.9542m 
   65.70000p  -28.1358m  -10.7351m 
   65.80000p  -28.0234m  -10.5161m 
   65.90000p  -27.9109m  -10.2970m 
   66.00000p  -27.7985m  -10.0779m 
   66.10000p  -27.6860m   -9.8588m 
   66.20000p  -27.5736m   -9.6397m 
   66.30000p  -27.4611m   -9.4207m 
   66.40000p  -27.3486m   -9.2016m 
   66.50000p  -27.2362m   -8.9825m 
   66.60000p  -27.1237m   -8.7634m 
   66.70000p  -27.0113m   -8.5444m 
   66.80000p  -26.7493m   -8.1723m 
   66.90000p  -26.3964m   -7.7072m 
   67.00000p  -26.0436m   -7.2422m 
   67.10000p  -25.6907m   -6.7771m 
   67.20000p  -25.3379m   -6.3121m 
   67.30000p  -24.9850m   -5.8470m 
   67.40000p  -24.6322m   -5.3820m 
   67.50000p  -24.2793m   -4.9170m 
   67.60000p  -23.9265m   -4.4519m 
   67.70000p  -23.5736m   -3.9869m 
   67.80000p  -23.2208m   -3.5218m 
   67.90000p  -22.8679m   -3.0568m 
   68.00000p  -22.5150m   -2.5917m 
   68.10000p  -22.1622m   -2.1267m 
   68.20000p  -21.8093m   -1.6616m 
   68.30000p  -21.4565m   -1.1966m 
   68.40000p  -21.1036m -731.5470u 
   68.50000p  -20.7508m -266.5015u 
   68.60000p  -20.3979m  198.5440u 
   68.70000p  -20.0451m  663.5895u 
   68.80000p  -19.6922m    1.1286m 
   68.90000p  -19.3394m    1.5937m 
   69.00000p  -18.9865m    2.0587m 
   69.10000p  -18.6337m    2.5238m 
   69.20000p  -18.2808m    2.9888m 
   69.30000p  -17.9280m    3.4539m 
   69.40000p  -17.5751m    3.9189m 
   69.50000p  -17.2223m    4.3840m 
   69.60000p  -16.8694m    4.8490m 
   69.70000p  -16.5165m    5.3140m 
   69.80000p  -16.1637m    5.7791m 
   69.90000p  -15.8108m    6.2441m 
   70.00000p  -15.4580m    6.7092m 
   70.10000p  -15.1051m    7.1742m 
   70.20000p  -14.7523m    7.6393m 
   70.30000p  -14.3994m    8.1043m 
   70.40000p  -14.0466m    8.5694m 
   70.50000p  -13.6937m    9.0344m 
   70.60000p  -13.3409m    9.4995m 
   70.70000p  -12.9880m    9.9645m 
   70.80000p  -12.6352m   10.4295m 
   70.90000p  -12.2823m   10.8946m 
   71.00000p  -11.9295m   11.3596m 
   71.10000p  -11.5766m   11.8247m 
   71.20000p  -11.2237m   12.2897m 
   71.30000p  -10.8709m   12.7548m 
   71.40000p  -10.5180m   13.2198m 
   71.50000p  -10.1652m   13.6849m 
   71.60000p   -9.8123m   14.1499m 
   71.70000p   -9.4595m   14.6150m 
   71.80000p   -9.1066m   15.0800m 
   71.90000p   -8.7538m   15.5450m 
   72.00000p   -8.4009m   16.0101m 
   72.10000p   -8.0481m   16.4751m 
   72.20000p   -7.6952m   16.9402m 
   72.30000p   -7.3424m   17.4052m 
   72.40000p   -6.9895m   17.8703m 
   72.50000p   -6.6367m   18.3353m 
   72.60000p   -6.2838m   18.8004m 
   72.70000p   -5.9309m   19.2654m 
   72.80000p   -5.5781m   19.7305m 
   72.90000p   -5.2252m   20.1955m 
   73.00000p   -4.8724m   20.6605m 
   73.10000p   -4.5195m   21.1256m 
   73.20000p   -4.1667m   21.5906m 
   73.30000p   -3.8138m   22.0557m 
   73.40000p   -3.4610m   22.5207m 
   73.50000p   -3.1081m   22.9858m 
   73.60000p   -2.7553m   23.4508m 
   73.70000p   -2.4024m   23.9159m 
   73.80000p   -2.0496m   24.3809m 
   73.90000p   -1.6967m   24.8460m 
   74.00000p   -1.3439m   25.3110m 
   74.10000p -991.0028u   25.7760m 
   74.20000p -638.1496u   26.2411m 
   74.30000p -285.2964u   26.7061m 
   74.40000p   67.5568u   27.1712m 
   74.50000p  420.4100u   27.6362m 
   74.60000p  773.2633u   28.1013m 
   74.70000p    1.1261m   28.5663m 
   74.80000p    1.4790m   29.0314m 
   74.90000p    1.8318m   29.4964m 
   75.00000p    2.1847m   29.9615m 
   75.10000p    2.5375m   30.4265m 
   75.20000p    2.8904m   30.8915m 
   75.30000p    3.2432m   31.3566m 
   75.40000p    3.5961m   31.8216m 
   75.50000p    3.9489m   32.2867m 
   75.60000p    4.3018m   32.7517m 
   75.70000p    4.6546m   33.2168m 
   75.80000p    5.0075m   33.6818m 
   75.90000p    5.3604m   34.1469m 
   76.00000p    5.7132m   34.6119m 
   76.10000p    6.0661m   35.0770m 
   76.20000p    6.4189m   35.5420m 
   76.30000p    6.7718m   36.0070m 
   76.40000p    7.1246m   36.4721m 
   76.50000p    7.4775m   36.9371m 
   76.60000p    7.8303m   37.4022m 
   76.70000p    8.1832m   37.8672m 
   76.80000p    8.5360m   38.3323m 
   76.90000p    8.8889m   38.7973m 
   77.00000p    9.2417m   39.2624m 
   77.10000p    9.5946m   39.7274m 
   77.20000p    9.9474m   40.1925m 
   77.30000p   10.3003m   40.6575m 
   77.40000p   10.6532m   41.1225m 
   77.50000p   11.0060m   41.5876m 
   77.60000p   11.3589m   42.0526m 
   77.70000p   11.7117m   42.5177m 
   77.80000p   12.0646m   42.9827m 
   77.90000p   12.4500m   43.4669m 
   78.00000p   12.9615m   44.0248m 
   78.10000p   13.4730m   44.5828m 
   78.20000p   13.9844m   45.1407m 
   78.30000p   14.4959m   45.6987m 
   78.40000p   15.0074m   46.2567m 
   78.50000p   15.5189m   46.8146m 
   78.60000p   16.0304m   47.3726m 
   78.70000p   16.5419m   47.9306m 
   78.80000p   17.0533m   48.4885m 
   78.90000p   17.5648m   49.0465m 
   79.00000p   18.0763m   49.6045m 
   79.10000p   18.5878m   50.1624m 
   79.20000p   19.0993m   50.7204m 
   79.30000p   19.6108m   51.2784m 
   79.40000p   20.1222m   51.8363m 
   79.50000p   20.6337m   52.3943m 
   79.60000p   21.1452m   52.9523m 
   79.70000p   21.6567m   53.5102m 
   79.80000p   22.1682m   54.0682m 
   79.90000p   22.6797m   54.6261m 
   80.00000p   23.1911m   55.1841m 
   80.10000p   23.7026m   55.7421m 
   80.20000p   24.2141m   56.3000m 
   80.30000p   24.7256m   56.8580m 
   80.40000p   25.2371m   57.4160m 
   80.50000p   25.7486m   57.9739m 
   80.60000p   26.2600m   58.5319m 
   80.70000p   26.7715m   59.0899m 
   80.80000p   27.2830m   59.6478m 
   80.90000p   27.7945m   60.2058m 
   81.00000p   28.3060m   60.7638m 
   81.10000p   28.8175m   61.3217m 
   81.20000p   29.3290m   61.8797m 
   81.30000p   29.8404m   62.4376m 
   81.40000p   30.3519m   62.9956m 
   81.50000p   30.8634m   63.5536m 
   81.60000p   31.3749m   64.1115m 
   81.70000p   31.8864m   64.6695m 
   81.80000p   32.3979m   65.2275m 
   81.90000p   32.9093m   65.7854m 
   82.00000p   33.4208m   66.3434m 
   82.10000p   33.9323m   66.9014m 
   82.20000p   34.4438m   67.4593m 
   82.30000p   34.9553m   68.0173m 
   82.40000p   35.4668m   68.5753m 
   82.50000p   35.9782m   69.1332m 
   82.60000p   36.4897m   69.6912m 
   82.70000p   37.0012m   70.2492m 
   82.80000p   37.5127m   70.8071m 
   82.90000p   38.0242m   71.3651m 
   83.00000p   38.5357m   71.9230m 
   83.10000p   39.0471m   72.4810m 
   83.20000p   39.5586m   73.0390m 
   83.30000p   40.0701m   73.5969m 
   83.40000p   40.5816m   74.1549m 
   83.50000p   41.0931m   74.7129m 
   83.60000p   41.6046m   75.2708m 
   83.70000p   42.1160m   75.8288m 
   83.80000p   42.6275m   76.3868m 
   83.90000p   43.1390m   76.9447m 
   84.00000p   43.6505m   77.5027m 
   84.10000p   44.1620m   78.0607m 
   84.20000p   44.6735m   78.6186m 
   84.30000p   45.1849m   79.1766m 
   84.40000p   45.6964m   79.7346m 
   84.50000p   46.2079m   80.2925m 
   84.60000p   46.7194m   80.8505m 
   84.70000p   47.2309m   81.4084m 
   84.80000p   47.7424m   81.9664m 
   84.90000p   48.2538m   82.5244m 
   85.00000p   48.7653m   83.0823m 
   85.10000p   49.2768m   83.6403m 
   85.20000p   49.7883m   84.1983m 
   85.30000p   50.2998m   84.7562m 
   85.40000p   50.8113m   85.3142m 
   85.50000p   51.3227m   85.8722m 
   85.60000p   51.8342m   86.4301m 
   85.70000p   52.3457m   86.9881m 
   85.80000p   52.8572m   87.5461m 
   85.90000p   53.3687m   88.1040m 
   86.00000p   53.8802m   88.6620m 
   86.10000p   54.3916m   89.2199m 
   86.20000p   54.9031m   89.7779m 
   86.30000p   55.4146m   90.3359m 
   86.40000p   55.9261m   90.8938m 
   86.50000p   56.4376m   91.4518m 
   86.60000p   56.9491m   92.0098m 
   86.70000p   57.4606m   92.5677m 
   86.80000p   57.9720m   93.1257m 
   86.90000p   58.4835m   93.6837m 
   87.00000p   58.9950m   94.2416m 
   87.10000p   59.5065m   94.7996m 
   87.20000p   60.0180m   95.3576m 
   87.30000p   60.5295m   95.9155m 
   87.40000p   61.0409m   96.4735m 
   87.50000p   61.5524m   97.0315m 
   87.60000p   62.0639m   97.5894m 
   87.70000p   62.5754m   98.1474m 
   87.80000p   63.0869m   98.7053m 
   87.90000p   63.5984m   99.2633m 
   88.00000p   64.1098m   99.8213m 
   88.10000p   64.6213m  100.3792m 
   88.20000p   65.1328m  100.9372m 
   88.30000p   65.6443m  101.4952m 
   88.40000p   66.1558m  102.0531m 
   88.50000p   66.6673m  102.6111m 
   88.60000p   67.1787m  103.1691m 
   88.70000p   67.6902m  103.7270m 
   88.80000p   68.2017m  104.2850m 
   88.90000p   68.7132m  104.8430m 
   89.00000p   69.2247m  105.4009m 
   89.10000p   69.7362m  105.9589m 
   89.20000p   70.2476m  106.5169m 
   89.30000p   70.7591m  107.0748m 
   89.40000p   71.2706m  107.6328m 
   89.50000p   71.7821m  108.1907m 
   89.60000p   72.2936m  108.7487m 
   89.70000p   72.8051m  109.3067m 
   89.80000p   73.3165m  109.8646m 
   89.90000p   73.8280m  110.4226m 
   90.00000p   74.3395m  110.9806m 
   90.10000p   74.8510m  111.5385m 
   90.20000p   75.3625m  112.0965m 
   90.30000p   75.8740m  112.6545m 
   90.40000p   76.4082m  113.1892m 
   90.50000p   76.9481m  113.7182m 
   90.60000p   77.4880m  114.2472m 
   90.70000p   78.0279m  114.7761m 
   90.80000p   78.5679m  115.3051m 
   90.90000p   79.1078m  115.8341m 
   91.00000p   79.6477m  116.3630m 
   91.10000p   80.1876m  116.8920m 
   91.20000p   80.7275m  117.4210m 
   91.30000p   81.2675m  117.9499m 
   91.40000p   81.8074m  118.4789m 
   91.50000p   82.3473m  119.0079m 
   91.60000p   82.8872m  119.5368m 
   91.70000p   83.4271m  120.0658m 
   91.80000p   83.9671m  120.5948m 
   91.90000p   84.5070m  121.1237m 
   92.00000p   85.0469m  121.6527m 
   92.10000p   85.5868m  122.1817m 
   92.20000p   86.1267m  122.7106m 
   92.30000p   86.6667m  123.2396m 
   92.40000p   87.2066m  123.7686m 
   92.50000p   87.7465m  124.2975m 
   92.60000p   88.2864m  124.8265m 
   92.70000p   88.8263m  125.3554m 
   92.80000p   89.3663m  125.8844m 
   92.90000p   89.9062m  126.4134m 
   93.00000p   90.4461m  126.9423m 
   93.10000p   90.9860m  127.4713m 
   93.20000p   91.5260m  128.0003m 
   93.30000p   92.0659m  128.5292m 
   93.40000p   92.6058m  129.0582m 
   93.50000p   93.1457m  129.5872m 
   93.60000p   93.6856m  130.1161m 
   93.70000p   94.2256m  130.6451m 
   93.80000p   94.7655m  131.1741m 
   93.90000p   95.3054m  131.7030m 
   94.00000p   95.8453m  132.2320m 
   94.10000p   96.3852m  132.7610m 
   94.20000p   96.9252m  133.2899m 
   94.30000p   97.4651m  133.8189m 
   94.40000p   98.0050m  134.3479m 
   94.50000p   98.5449m  134.8768m 
   94.60000p   99.0848m  135.4058m 
   94.70000p   99.6248m  135.9348m 
   94.80000p  100.1647m  136.4637m 
   94.90000p  100.7046m  136.9927m 
   95.00000p  101.2445m  137.5217m 
   95.10000p  101.7844m  138.0506m 
   95.20000p  102.3244m  138.5796m 
   95.30000p  102.8643m  139.1085m 
   95.40000p  103.4042m  139.6375m 
   95.50000p  103.9441m  140.1665m 
   95.60000p  104.4840m  140.6954m 
   95.70000p  105.0240m  141.2244m 
   95.80000p  105.5639m  141.7534m 
   95.90000p  106.1038m  142.2823m 
   96.00000p  106.6437m  142.8113m 
   96.10000p  107.1836m  143.3403m 
   96.20000p  107.7236m  143.8692m 
   96.30000p  108.2635m  144.3982m 
   96.40000p  108.8034m  144.9272m 
   96.50000p  109.3433m  145.4561m 
   96.60000p  109.8833m  145.9851m 
   96.70000p  110.4232m  146.5141m 
   96.80000p  110.9631m  147.0430m 
   96.90000p  111.5030m  147.5720m 
   97.00000p  112.0429m  148.1010m 
   97.10000p  112.5829m  148.6299m 
   97.20000p  113.1228m  149.1589m 
   97.30000p  113.6627m  149.6879m 
   97.40000p  114.2026m  150.2168m 
   97.50000p  114.7425m  150.7458m 
   97.60000p  115.2825m  151.2747m 
   97.70000p  115.8224m  151.8037m 
   97.80000p  116.3623m  152.3327m 
   97.90000p  116.9022m  152.8616m 
   98.00000p  117.4421m  153.3906m 
   98.10000p  117.9821m  153.9196m 
   98.20000p  118.5220m  154.4485m 
   98.30000p  119.0619m  154.9775m 
   98.40000p  119.6018m  155.5065m 
   98.50000p  120.1417m  156.0354m 
   98.60000p  120.6817m  156.5644m 
   98.70000p  121.2216m  157.0934m 
   98.80000p  121.7615m  157.6223m 
   98.90000p  122.3014m  158.1513m 
   99.00000p  122.8413m  158.6803m 
   99.10000p  123.3813m  159.2092m 
   99.20000p  123.9212m  159.7382m 
   99.30000p  124.4611m  160.2672m 
   99.40000p  125.0010m  160.7961m 
   99.50000p  125.5409m  161.3251m 
   99.60000p  126.0809m  161.8541m 
   99.70000p  126.6208m  162.3830m 
   99.80000p  127.1607m  162.9120m 
   99.90000p  127.7006m  163.4409m 
  100.00000p  128.2406m  163.9699m 
  100.10000p  128.7380m  164.4516m 
  100.20000p  129.2158m  164.9114m 
  100.30000p  129.6936m  165.3712m 
  100.40000p  130.1715m  165.8310m 
  100.50000p  130.6493m  166.2908m 
  100.60000p  131.1271m  166.7506m 
  100.70000p  131.6049m  167.2104m 
  100.80000p  132.0827m  167.6702m 
  100.90000p  132.5605m  168.1300m 
  101.00000p  133.0383m  168.5898m 
  101.10000p  133.5161m  169.0496m 
  101.20000p  133.9940m  169.5094m 
  101.30000p  134.4718m  169.9692m 
  101.40000p  134.9496m  170.4290m 
  101.50000p  135.4274m  170.8888m 
  101.60000p  135.9052m  171.3486m 
  101.70000p  136.3830m  171.8084m 
  101.80000p  136.8608m  172.2682m 
  101.90000p  137.3386m  172.7280m 
  102.00000p  137.8165m  173.1878m 
  102.10000p  138.2943m  173.6476m 
  102.20000p  138.7721m  174.1074m 
  102.30000p  139.2499m  174.5672m 
  102.40000p  139.7277m  175.0270m 
  102.50000p  140.2055m  175.4868m 
  102.60000p  140.6833m  175.9466m 
  102.70000p  141.1611m  176.4064m 
  102.80000p  141.6390m  176.8662m 
  102.90000p  142.1168m  177.3260m 
  103.00000p  142.5946m  177.7858m 
  103.10000p  143.0724m  178.2456m 
  103.20000p  143.5502m  178.7054m 
  103.30000p  144.0280m  179.1652m 
  103.40000p  144.5058m  179.6250m 
  103.50000p  144.9836m  180.0848m 
  103.60000p  145.4615m  180.5446m 
  103.70000p  145.9393m  181.0044m 
  103.80000p  146.4171m  181.4642m 
  103.90000p  146.8949m  181.9240m 
  104.00000p  147.3727m  182.3838m 
  104.10000p  147.8505m  182.8436m 
  104.20000p  148.3283m  183.3034m 
  104.30000p  148.8061m  183.7632m 
  104.40000p  149.2840m  184.2230m 
  104.50000p  149.7618m  184.6828m 
  104.60000p  150.2396m  185.1426m 
  104.70000p  150.7174m  185.6024m 
  104.80000p  151.1952m  186.0622m 
  104.90000p  151.6730m  186.5220m 
  105.00000p  152.1508m  186.9818m 
  105.10000p  152.6286m  187.4416m 
  105.20000p  153.1065m  187.9014m 
  105.30000p  153.5843m  188.3612m 
  105.40000p  154.0621m  188.8210m 
  105.50000p  154.5399m  189.2808m 
  105.60000p  155.0177m  189.7406m 
  105.70000p  155.4955m  190.2004m 
  105.80000p  155.9733m  190.6602m 
  105.90000p  156.4511m  191.1200m 
  106.00000p  156.9290m  191.5798m 
  106.10000p  157.4068m  192.0396m 
  106.20000p  157.8846m  192.4994m 
  106.30000p  158.3624m  192.9592m 
  106.40000p  158.8402m  193.4190m 
  106.50000p  159.3180m  193.8788m 
  106.60000p  159.7958m  194.3386m 
  106.70000p  160.2736m  194.7984m 
  106.80000p  160.7515m  195.2582m 
  106.90000p  161.2293m  195.7180m 
  107.00000p  161.7071m  196.1778m 
  107.10000p  162.1849m  196.6376m 
  107.20000p  162.6627m  197.0974m 
  107.30000p  163.1405m  197.5572m 
  107.40000p  163.6183m  198.0170m 
  107.50000p  164.0961m  198.4768m 
  107.60000p  164.5739m  198.9366m 
  107.70000p  165.0518m  199.3964m 
  107.80000p  165.5296m  199.8562m 
  107.90000p  166.0074m  200.3160m 
  108.00000p  166.4852m  200.7758m 
  108.10000p  166.9630m  201.2356m 
  108.20000p  167.4408m  201.6954m 
  108.30000p  167.9186m  202.1552m 
  108.40000p  168.3964m  202.6150m 
  108.50000p  168.8743m  203.0748m 
  108.60000p  169.3521m  203.5346m 
  108.70000p  169.8299m  203.9944m 
  108.80000p  170.3077m  204.4542m 
  108.90000p  170.7855m  204.9140m 
  109.00000p  171.2633m  205.3738m 
  109.10000p  171.7411m  205.8336m 
  109.20000p  172.2189m  206.2934m 
  109.30000p  172.6968m  206.7532m 
  109.40000p  173.1746m  207.2130m 
  109.50000p  173.6524m  207.6728m 
  109.60000p  174.1302m  208.1326m 
  109.70000p  174.6080m  208.5924m 
  109.80000p  175.0858m  209.0522m 
  109.90000p  175.5636m  209.5120m 
  110.00000p  176.0414m  209.9718m 
  110.10000p  176.5193m  210.4316m 
  110.20000p  176.9971m  210.8914m 
  110.30000p  177.4749m  211.3512m 
  110.40000p  177.9527m  211.8110m 
  110.50000p  178.4305m  212.2708m 
  110.60000p  178.9083m  212.7306m 
  110.70000p  179.3861m  213.1904m 
  110.80000p  179.8639m  213.6502m 
  110.90000p  180.3418m  214.1100m 
  111.00000p  180.8196m  214.5698m 
  111.10000p  181.2974m  215.0296m 
  111.20000p  181.7752m  215.4894m 
  111.30000p  182.2530m  215.9492m 
  111.40000p  182.7308m  216.4090m 
  111.50000p  183.2086m  216.8688m 
  111.60000p  183.6864m  217.3286m 
  111.70000p  184.1643m  217.7884m 
  111.80000p  184.6421m  218.2482m 
  111.90000p  185.1199m  218.7080m 
  112.00000p  185.5977m  219.1678m 
  112.10000p  186.0755m  219.6276m 
  112.20000p  186.5533m  220.0874m 
  112.30000p  187.0266m  220.5428m 
  112.40000p  187.4359m  220.9372m 
  112.50000p  187.8453m  221.3316m 
  112.60000p  188.2547m  221.7260m 
  112.70000p  188.6640m  222.1204m 
  112.80000p  189.0734m  222.5147m 
  112.90000p  189.4828m  222.9091m 
  113.00000p  189.8921m  223.3035m 
  113.10000p  190.3015m  223.6979m 
  113.20000p  190.7109m  224.0923m 
  113.30000p  191.1202m  224.4867m 
  113.40000p  191.5296m  224.8811m 
  113.50000p  191.9390m  225.2754m 
  113.60000p  192.3483m  225.6698m 
  113.70000p  192.7577m  226.0642m 
  113.80000p  193.1671m  226.4586m 
  113.90000p  193.5764m  226.8530m 
  114.00000p  193.9858m  227.2474m 
  114.10000p  194.3952m  227.6418m 
  114.20000p  194.8045m  228.0361m 
  114.30000p  195.2139m  228.4305m 
  114.40000p  195.6233m  228.8249m 
  114.50000p  196.0326m  229.2193m 
  114.60000p  196.4420m  229.6137m 
  114.70000p  196.8514m  230.0081m 
  114.80000p  197.2607m  230.4025m 
  114.90000p  197.6701m  230.7969m 
  115.00000p  198.0795m  231.1912m 
  115.10000p  198.4888m  231.5856m 
  115.20000p  198.8982m  231.9800m 
  115.30000p  199.3076m  232.3744m 
  115.40000p  199.7169m  232.7688m 
  115.50000p  200.1263m  233.1632m 
  115.60000p  200.5357m  233.5576m 
  115.70000p  200.9450m  233.9519m 
  115.80000p  201.3544m  234.3463m 
  115.90000p  201.7638m  234.7407m 
  116.00000p  202.1731m  235.1351m 
  116.10000p  202.5825m  235.5295m 
  116.20000p  202.9919m  235.9239m 
  116.30000p  203.4012m  236.3183m 
  116.40000p  203.8106m  236.7126m 
  116.50000p  204.2199m  237.1070m 
  116.60000p  204.6293m  237.5014m 
  116.70000p  205.0387m  237.8958m 
  116.80000p  205.4480m  238.2902m 
  116.90000p  205.8574m  238.6846m 
  117.00000p  206.2668m  239.0790m 
  117.10000p  206.6761m  239.4734m 
  117.20000p  207.0855m  239.8677m 
  117.30000p  207.4949m  240.2621m 
  117.40000p  207.9042m  240.6565m 
  117.50000p  208.3136m  241.0509m 
  117.60000p  208.7230m  241.4453m 
  117.70000p  209.1323m  241.8397m 
  117.80000p  209.5417m  242.2341m 
  117.90000p  209.9511m  242.6284m 
  118.00000p  210.3604m  243.0228m 
  118.10000p  210.7698m  243.4172m 
  118.20000p  211.1792m  243.8116m 
  118.30000p  211.5885m  244.2060m 
  118.40000p  211.9979m  244.6004m 
  118.50000p  212.4073m  244.9948m 
  118.60000p  212.8166m  245.3892m 
  118.70000p  213.2260m  245.7835m 
  118.80000p  213.6354m  246.1779m 
  118.90000p  214.0447m  246.5723m 
  119.00000p  214.4541m  246.9667m 
  119.10000p  214.8635m  247.3611m 
  119.20000p  215.2728m  247.7555m 
  119.30000p  215.6822m  248.1499m 
  119.40000p  216.0916m  248.5442m 
  119.50000p  216.5009m  248.9386m 
  119.60000p  216.9103m  249.3330m 
  119.70000p  217.3197m  249.7274m 
  119.80000p  217.7290m  250.1218m 
  119.90000p  218.1384m  250.5162m 
  120.00000p  218.5478m  250.9106m 
  120.10000p  218.9571m  251.3049m 
  120.20000p  219.3665m  251.6993m 
  120.30000p  219.7759m  252.0937m 
  120.40000p  220.1852m  252.4881m 
  120.50000p  220.5946m  252.8825m 
  120.60000p  221.0040m  253.2769m 
  120.70000p  221.4133m  253.6713m 
  120.80000p  221.8227m  254.0657m 
  120.90000p  222.2321m  254.4600m 
  121.00000p  222.6414m  254.8544m 
  121.10000p  223.0151m  255.2059m 
  121.20000p  223.3888m  255.5573m 
  121.30000p  223.7624m  255.9088m 
  121.40000p  224.1361m  256.2603m 
  121.50000p  224.5097m  256.6117m 
  121.60000p  224.8834m  256.9632m 
  121.70000p  225.2571m  257.3146m 
  121.80000p  225.6307m  257.6661m 
  121.90000p  226.0044m  258.0175m 
  122.00000p  226.3781m  258.3690m 
  122.10000p  226.7517m  258.7205m 
  122.20000p  227.1254m  259.0719m 
  122.30000p  227.4991m  259.4234m 
  122.40000p  227.8727m  259.7748m 
  122.50000p  228.2464m  260.1263m 
  122.60000p  228.6201m  260.4778m 
  122.70000p  228.9937m  260.8292m 
  122.80000p  229.3674m  261.1807m 
  122.90000p  229.7411m  261.5321m 
  123.00000p  230.1142m  261.8829m 
  123.10000p  230.4865m  262.2327m 
  123.20000p  230.8588m  262.5825m 
  123.30000p  231.2311m  262.9323m 
  123.40000p  231.6034m  263.2821m 
  123.50000p  231.9757m  263.6319m 
  123.60000p  232.3480m  263.9817m 
  123.70000p  232.7195m  264.3307m 
  123.80000p  233.0836m  264.6717m 
  123.90000p  233.4478m  265.0128m 
  124.00000p  233.8119m  265.3538m 
  124.10000p  234.1760m  265.6948m 
  124.20000p  234.5401m  266.0358m 
  124.30000p  234.9043m  266.3768m 
  124.40000p  235.2684m  266.7178m 
  124.50000p  235.6325m  267.0588m 
  124.60000p  235.9966m  267.3998m 
  124.70000p  236.3608m  267.7408m 
  124.80000p  236.7249m  268.0818m 
  124.90000p  237.0890m  268.4229m 
  125.00000p  237.4531m  268.7639m 
  125.10000p  237.8173m  269.1049m 
  125.20000p  238.1814m  269.4459m 
  125.30000p  238.5455m  269.7869m 
  125.40000p  238.9097m  270.1279m 
  125.50000p  239.2738m  270.4689m 
  125.60000p  239.6379m  270.8099m 
  125.70000p  240.0020m  271.1509m 
  125.80000p  240.3662m  271.4919m 
  125.90000p  240.7303m  271.8329m 
  126.00000p  241.0944m  272.1740m 
  126.10000p  241.4470m  272.5045m 
  126.20000p  241.7942m  272.8301m 
  126.30000p  242.1414m  273.1557m 
  126.40000p  242.4886m  273.4813m 
  126.50000p  242.8358m  273.8070m 
  126.60000p  243.1830m  274.1326m 
  126.70000p  243.5302m  274.4582m 
  126.80000p  243.8773m  274.7838m 
  126.90000p  244.2245m  275.1094m 
  127.00000p  244.5717m  275.4350m 
  127.10000p  244.9189m  275.7606m 
  127.20000p  245.2661m  276.0862m 
  127.30000p  245.6133m  276.4118m 
  127.40000p  245.9605m  276.7374m 
  127.50000p  246.3076m  277.0630m 
  127.60000p  246.6548m  277.3887m 
  127.70000p  247.0020m  277.7143m 
  127.80000p  247.3492m  278.0399m 
  127.90000p  247.6964m  278.3655m 
  128.00000p  248.0436m  278.6911m 
  128.10000p  248.3908m  279.0167m 
  128.20000p  248.7380m  279.3423m 
  128.30000p  249.0851m  279.6679m 
  128.40000p  249.4323m  279.9935m 
  128.50000p  249.7795m  280.3191m 
  128.60000p  250.1267m  280.6447m 
  128.70000p  250.4739m  280.9703m 
  128.80000p  250.8211m  281.2960m 
  128.90000p  251.1683m  281.6216m 
  129.00000p  251.5154m  281.9472m 
  129.10000p  251.8626m  282.2728m 
  129.20000p  252.2098m  282.5984m 
  129.30000p  252.5570m  282.9240m 
  129.40000p  252.9042m  283.2496m 
  129.50000p  253.2514m  283.5752m 
  129.60000p  253.5986m  283.9008m 
  129.70000p  253.9457m  284.2264m 
  129.80000p  254.2929m  284.5520m 
  129.90000p  254.6401m  284.8777m 
  130.00000p  254.9873m  285.2033m 
  130.10000p  255.3345m  285.5289m 
  130.20000p  255.6817m  285.8545m 
  130.30000p  256.0289m  286.1801m 
  130.40000p  256.3761m  286.5057m 
  130.50000p  256.7232m  286.8313m 
  130.60000p  257.0704m  287.1569m 
  130.70000p  257.4176m  287.4825m 
  130.80000p  257.7648m  287.8081m 
  130.90000p  258.1120m  288.1337m 
  131.00000p  258.4592m  288.4593m 
  131.10000p  258.8064m  288.7850m 
  131.20000p  259.1535m  289.1106m 
  131.30000p  259.5007m  289.4362m 
  131.40000p  259.8479m  289.7618m 
  131.50000p  260.1951m  290.0874m 
  131.60000p  260.5423m  290.4130m 
  131.70000p  260.8895m  290.7386m 
  131.80000p  261.2367m  291.0642m 
  131.90000p  261.5838m  291.3898m 
  132.00000p  261.9310m  291.7154m 
  132.10000p  262.2782m  292.0410m 
  132.20000p  262.6254m  292.3667m 
  132.30000p  262.9726m  292.6923m 
  132.40000p  263.3198m  293.0179m 
  132.50000p  263.6670m  293.3435m 
  132.60000p  264.0141m  293.6691m 
  132.70000p  264.3613m  293.9947m 
  132.80000p  264.7085m  294.3203m 
  132.90000p  265.0557m  294.6459m 
  133.00000p  265.4022m  294.9719m 
  133.10000p  265.7272m  295.3075m 
  133.20000p  266.0522m  295.6431m 
  133.30000p  266.3773m  295.9788m 
  133.40000p  266.7023m  296.3144m 
  133.50000p  267.0274m  296.6501m 
  133.60000p  267.3524m  296.9857m 
  133.70000p  267.6775m  297.3214m 
  133.80000p  268.0025m  297.6570m 
  133.90000p  268.3275m  297.9926m 
  134.00000p  268.6526m  298.3283m 
  134.10000p  268.9776m  298.6639m 
  134.20000p  269.3027m  298.9996m 
  134.30000p  269.6277m  299.3352m 
  134.40000p  269.9528m  299.6708m 
  134.50000p  270.2778m  300.0065m 
  134.60000p  270.6029m  300.3421m 
  134.70000p  270.9279m  300.6778m 
  134.80000p  271.2529m  301.0134m 
  134.90000p  271.5780m  301.3491m 
  135.00000p  271.9030m  301.6847m 
  135.10000p  272.2281m  302.0203m 
  135.20000p  272.5531m  302.3560m 
  135.30000p  272.8782m  302.6916m 
  135.40000p  273.2032m  303.0273m 
  135.50000p  273.5282m  303.3629m 
  135.60000p  273.8533m  303.6985m 
  135.70000p  274.1783m  304.0342m 
  135.80000p  274.5034m  304.3698m 
  135.90000p  274.8284m  304.7055m 
  136.00000p  275.1535m  305.0411m 
  136.10000p  275.4785m  305.3768m 
  136.20000p  275.8035m  305.7124m 
  136.30000p  276.1286m  306.0480m 
  136.40000p  276.4536m  306.3837m 
  136.50000p  276.7787m  306.7193m 
  136.60000p  277.1037m  307.0550m 
  136.70000p  277.4288m  307.3906m 
  136.80000p  277.7538m  307.7263m 
  136.90000p  278.0788m  308.0619m 
  137.00000p  278.4039m  308.3975m 
  137.10000p  278.7289m  308.7332m 
  137.20000p  279.0540m  309.0688m 
  137.30000p  279.3790m  309.4045m 
  137.40000p  279.7041m  309.7401m 
  137.50000p  280.0291m  310.0757m 
  137.60000p  280.3541m  310.4114m 
  137.70000p  280.6792m  310.7470m 
  137.80000p  281.0042m  311.0827m 
  137.90000p  281.3293m  311.4183m 
  138.00000p  281.6543m  311.7540m 
  138.10000p  281.9794m  312.0896m 
  138.20000p  282.3044m  312.4252m 
  138.30000p  282.6294m  312.7609m 
  138.40000p  282.9545m  313.0965m 
  138.50000p  283.2795m  313.4322m 
  138.60000p  283.6046m  313.7678m 
  138.70000p  283.9239m  314.1162m 
  138.80000p  284.2360m  314.4810m 
  138.90000p  284.5481m  314.8458m 
  139.00000p  284.8602m  315.2106m 
  139.10000p  285.1723m  315.5753m 
  139.20000p  285.4844m  315.9401m 
  139.30000p  285.7965m  316.3049m 
  139.40000p  286.1086m  316.6697m 
  139.50000p  286.4207m  317.0345m 
  139.60000p  286.7328m  317.3993m 
  139.70000p  287.0449m  317.7640m 
  139.80000p  287.3570m  318.1288m 
  139.90000p  287.6691m  318.4936m 
  140.00000p  287.9812m  318.8584m 
  140.10000p  288.2933m  319.2232m 
  140.20000p  288.6054m  319.5880m 
  140.30000p  288.9175m  319.9528m 
  140.40000p  289.2296m  320.3175m 
  140.50000p  289.5417m  320.6823m 
  140.60000p  289.8538m  321.0471m 
  140.70000p  290.1659m  321.4119m 
  140.80000p  290.4780m  321.7767m 
  140.90000p  290.7901m  322.1415m 
  141.00000p  291.1022m  322.5062m 
  141.10000p  291.4097m  322.8841m 
  141.20000p  291.7171m  323.2619m 
  141.30000p  292.0245m  323.6398m 
  141.40000p  292.3320m  324.0176m 
  141.50000p  292.6394m  324.3955m 
  141.60000p  292.9459m  324.7727m 
  141.70000p  293.2486m  325.1475m 
  141.80000p  293.5514m  325.5224m 
  141.90000p  293.8542m  325.8972m 
  142.00000p  294.1569m  326.2721m 
  142.10000p  294.4588m  326.6392m 
  142.20000p  294.7587m  326.9887m 
  142.30000p  295.0586m  327.3383m 
  142.40000p  295.3584m  327.6878m 
  142.50000p  295.6583m  328.0374m 
  142.60000p  295.9582m  328.3869m 
  142.70000p  296.2580m  328.7365m 
  142.80000p  296.5579m  329.0860m 
  142.90000p  296.8578m  329.4356m 
  143.00000p  297.1576m  329.7851m 
  143.10000p  297.4575m  330.1347m 
  143.20000p  297.7574m  330.4843m 
  143.30000p  298.0572m  330.8338m 
  143.40000p  298.3571m  331.1834m 
  143.50000p  298.6570m  331.5329m 
  143.60000p  298.9568m  331.8825m 
  143.70000p  299.2544m  332.2072m 
  143.80000p  299.5505m  332.5162m 
  143.90000p  299.8467m  332.8253m 
  144.00000p  300.1428m  333.1343m 
  144.10000p  300.4389m  333.4433m 
  144.20000p  300.7350m  333.7524m 
  144.30000p  301.0311m  334.0614m 
  144.40000p  301.3273m  334.3705m 
  144.50000p  301.6234m  334.6795m 
  144.60000p  301.9195m  334.9885m 
  144.70000p  302.2156m  335.2976m 
  144.80000p  302.5118m  335.6066m 
  144.90000p  302.8079m  335.9157m 
  145.00000p  303.1040m  336.2247m 
  145.10000p  303.4001m  336.5337m 
  145.20000p  303.6962m  336.8428m 
  145.30000p  303.9924m  337.1518m 
  145.40000p  304.2885m  337.4608m 
  145.50000p  304.5846m  337.7699m 
  145.60000p  304.8807m  338.0789m 
  145.70000p  305.1768m  338.3880m 
  145.80000p  305.4730m  338.6970m 
  145.90000p  305.7691m  339.0060m 
  146.00000p  306.0652m  339.3151m 
  146.10000p  306.3613m  339.6241m 
  146.20000p  306.6575m  339.9332m 
  146.30000p  306.9536m  340.2422m 
  146.40000p  307.2497m  340.5512m 
  146.50000p  307.5458m  340.8603m 
  146.60000p  307.8419m  341.1693m 
  146.70000p  308.1381m  341.4784m 
  146.80000p  308.4342m  341.7874m 
  146.90000p  308.7303m  342.0964m 
  147.00000p  309.0264m  342.4055m 
  147.10000p  309.3230m  342.7098m 
  147.20000p  309.6241m  342.9610m 
  147.30000p  309.9252m  343.2122m 
  147.40000p  310.2263m  343.4633m 
  147.50000p  310.5275m  343.7145m 
  147.60000p  310.8286m  343.9657m 
  147.70000p  311.1297m  344.2169m 
  147.80000p  311.4308m  344.4681m 
  147.90000p  311.7320m  344.7193m 
  148.00000p  312.0331m  344.9705m 
  148.10000p  312.3342m  345.2217m 
  148.20000p  312.6354m  345.4728m 
  148.30000p  312.9365m  345.7240m 
  148.40000p  313.2376m  345.9752m 
  148.50000p  313.5387m  346.2264m 
  148.60000p  313.8399m  346.4776m 
  148.70000p  314.1410m  346.7288m 
  148.80000p  314.4421m  346.9800m 
  148.90000p  314.7432m  347.2312m 
  149.00000p  315.0444m  347.4823m 
  149.10000p  315.3455m  347.7335m 
  149.20000p  315.6466m  347.9847m 
  149.30000p  315.9477m  348.2359m 
  149.40000p  316.2489m  348.4871m 
  149.50000p  316.5500m  348.7383m 
  149.60000p  316.8511m  348.9895m 
  149.70000p  317.1523m  349.2407m 
  149.80000p  317.4534m  349.4918m 
  149.90000p  317.7545m  349.7430m 
  150.00000p  318.0556m  349.9942m 
  150.10000p  318.3568m  350.2454m 
  150.20000p  318.6579m  350.4966m 
  150.30000p  318.9590m  350.7478m 
  150.40000p  319.2601m  350.9990m 
  150.50000p  319.5613m  351.2502m 
  150.60000p  319.8624m  351.5013m 
  150.70000p  320.1635m  351.7525m 
  150.80000p  320.4646m  352.0037m 
  150.90000p  320.7658m  352.2549m 
  151.00000p  321.0669m  352.5061m 
  151.10000p  321.3680m  352.7573m 
  151.20000p  321.6691m  353.0085m 
  151.30000p  321.9703m  353.2597m 
  151.40000p  322.2714m  353.5109m 
  151.50000p  322.5725m  353.7620m 
  151.60000p  322.8737m  354.0132m 
  151.70000p  323.1748m  354.2644m 
  151.80000p  323.4759m  354.5156m 
  151.90000p  323.7770m  354.7668m 
  152.00000p  324.0782m  355.0180m 
  152.10000p  324.3793m  355.2692m 
  152.20000p  324.6804m  355.5204m 
  152.30000p  324.9815m  355.7715m 
  152.40000p  325.2827m  356.0227m 
  152.50000p  325.5838m  356.2739m 
  152.60000p  325.8849m  356.5251m 
  152.70000p  326.1860m  356.7763m 
  152.80000p  326.4872m  357.0275m 
  152.90000p  326.7883m  357.2787m 
  153.00000p  327.0894m  357.5299m 
  153.10000p  327.3906m  357.7810m 
  153.20000p  327.6917m  358.0322m 
  153.30000p  327.9928m  358.2834m 
  153.40000p  328.2939m  358.5346m 
  153.50000p  328.5951m  358.7858m 
  153.60000p  328.8986m  359.0317m 
  153.70000p  329.2200m  359.2389m 
  153.80000p  329.5413m  359.4461m 
  153.90000p  329.8627m  359.6534m 
  154.00000p  330.1840m  359.8606m 
  154.10000p  330.5053m  360.0679m 
  154.20000p  330.8267m  360.2751m 
  154.30000p  331.1480m  360.4823m 
  154.40000p  331.4694m  360.6896m 
  154.50000p  331.7907m  360.8968m 
  154.60000p  332.1120m  361.1041m 
  154.70000p  332.4334m  361.3113m 
  154.80000p  332.7547m  361.5185m 
  154.90000p  333.0761m  361.7258m 
  155.00000p  333.3974m  361.9330m 
  155.10000p  333.7187m  362.1403m 
  155.20000p  334.0401m  362.3475m 
  155.30000p  334.3614m  362.5547m 
  155.40000p  334.6828m  362.7620m 
  155.50000p  335.0041m  362.9692m 
  155.60000p  335.3254m  363.1765m 
  155.70000p  335.6468m  363.3837m 
  155.80000p  335.9681m  363.5909m 
  155.90000p  336.2895m  363.7982m 
  156.00000p  336.6108m  364.0054m 
  156.10000p  336.9321m  364.2127m 
  156.20000p  337.2535m  364.4199m 
  156.30000p  337.5748m  364.6271m 
  156.40000p  337.8962m  364.8344m 
  156.50000p  338.2175m  365.0416m 
  156.60000p  338.5389m  365.2489m 
  156.70000p  338.8602m  365.4561m 
  156.80000p  339.1815m  365.6633m 
  156.90000p  339.5029m  365.8706m 
  157.00000p  339.8242m  366.0778m 
  157.10000p  340.1456m  366.2851m 
  157.20000p  340.4669m  366.4923m 
  157.30000p  340.7882m  366.6995m 
  157.40000p  341.1096m  366.9068m 
  157.50000p  341.4309m  367.1140m 
  157.60000p  341.7523m  367.3213m 
  157.70000p  342.0736m  367.5285m 
  157.80000p  342.3949m  367.7357m 
  157.90000p  342.7163m  367.9430m 
  158.00000p  343.0376m  368.1502m 
  158.10000p  343.3590m  368.3574m 
  158.20000p  343.6803m  368.5647m 
  158.30000p  344.0016m  368.7719m 
  158.40000p  344.3230m  368.9792m 
  158.50000p  344.6443m  369.1864m 
  158.60000p  344.9657m  369.3936m 
  158.70000p  345.2870m  369.6009m 
  158.80000p  345.6345m  369.7844m 
  158.90000p  345.9856m  369.9646m 
  159.00000p  346.3366m  370.1449m 
  159.10000p  346.6876m  370.3252m 
  159.20000p  347.0387m  370.5055m 
  159.30000p  347.3897m  370.6857m 
  159.40000p  347.7407m  370.8660m 
  159.50000p  348.0918m  371.0463m 
  159.60000p  348.4428m  371.2266m 
  159.70000p  348.7938m  371.4068m 
  159.80000p  349.1449m  371.5871m 
  159.90000p  349.4959m  371.7674m 
  160.00000p  349.8470m  371.9477m 
  160.10000p  350.1980m  372.1279m 
  160.20000p  350.5490m  372.3082m 
  160.30000p  350.9001m  372.4885m 
  160.40000p  351.2511m  372.6688m 
  160.50000p  351.6021m  372.8491m 
  160.60000p  351.9532m  373.0293m 
  160.70000p  352.3042m  373.2096m 
  160.80000p  352.6552m  373.3899m 
  160.90000p  353.0063m  373.5702m 
  161.00000p  353.3573m  373.7504m 
  161.10000p  353.7083m  373.9307m 
  161.20000p  354.0594m  374.1110m 
  161.30000p  354.4104m  374.2913m 
  161.40000p  354.7615m  374.4715m 
  161.50000p  355.1125m  374.6518m 
  161.60000p  355.4635m  374.8321m 
  161.70000p  355.8146m  375.0124m 
  161.80000p  356.1656m  375.1927m 
  161.90000p  356.5166m  375.3729m 
  162.00000p  356.8677m  375.5532m 
  162.10000p  357.2187m  375.7335m 
  162.20000p  357.5697m  375.9138m 
  162.30000p  357.9208m  376.0940m 
  162.40000p  358.2718m  376.2743m 
  162.50000p  358.6228m  376.4546m 
  162.60000p  358.9739m  376.6349m 
  162.70000p  359.3249m  376.8151m 
  162.80000p  359.6759m  376.9954m 
  162.90000p  360.0270m  377.1757m 
  163.00000p  360.3780m  377.3560m 
  163.10000p  360.7291m  377.5363m 
  163.20000p  361.0801m  377.7165m 
  163.30000p  361.4311m  377.8968m 
  163.40000p  361.7822m  378.0771m 
  163.50000p  362.1332m  378.2574m 
  163.60000p  362.4842m  378.4376m 
  163.70000p  362.8353m  378.6179m 
  163.80000p  363.1863m  378.7982m 
  163.90000p  363.5373m  378.9785m 
  164.00000p  363.8884m  379.1587m 
  164.10000p  364.2394m  379.3390m 
  164.20000p  364.5904m  379.5193m 
  164.30000p  364.9415m  379.6996m 
  164.40000p  365.3300m  379.8547m 
  164.50000p  365.7185m  380.0099m 
  164.60000p  366.1070m  380.1651m 
  164.70000p  366.4956m  380.3203m 
  164.80000p  366.8841m  380.4755m 
  164.90000p  367.2726m  380.6306m 
  165.00000p  367.6611m  380.7858m 
  165.10000p  368.0497m  380.9410m 
  165.20000p  368.4382m  381.0962m 
  165.30000p  368.8267m  381.2513m 
  165.40000p  369.2152m  381.4065m 
  165.50000p  369.6037m  381.5617m 
  165.60000p  369.9923m  381.7169m 
  165.70000p  370.3808m  381.8720m 
  165.80000p  370.7693m  382.0272m 
  165.90000p  371.1578m  382.1824m 
  166.00000p  371.5463m  382.3376m 
  166.10000p  371.9349m  382.4928m 
  166.20000p  372.3234m  382.6479m 
  166.30000p  372.7119m  382.8031m 
  166.40000p  373.1004m  382.9583m 
  166.50000p  373.4890m  383.1135m 
  166.60000p  373.8775m  383.2686m 
  166.70000p  374.2660m  383.4238m 
  166.80000p  374.6545m  383.5790m 
  166.90000p  375.0430m  383.7342m 
  167.00000p  375.4316m  383.8893m 
  167.10000p  375.8201m  384.0445m 
  167.20000p  376.2086m  384.1997m 
  167.30000p  376.5971m  384.3549m 
  167.40000p  376.9856m  384.5101m 
  167.50000p  377.3742m  384.6652m 
  167.60000p  377.7627m  384.8204m 
  167.70000p  378.1512m  384.9756m 
  167.80000p  378.5397m  385.1308m 
  167.90000p  378.9283m  385.2859m 
  168.00000p  379.3168m  385.4411m 
  168.10000p  379.7053m  385.5963m 
  168.20000p  380.0938m  385.7515m 
  168.30000p  380.4823m  385.9066m 
  168.40000p  380.8709m  386.0618m 
  168.50000p  381.2594m  386.2170m 
  168.60000p  381.6479m  386.3722m 
  168.70000p  382.0364m  386.5274m 
  168.80000p  382.4249m  386.6825m 
  168.90000p  382.8135m  386.8377m 
  169.00000p  383.2020m  386.9929m 
  169.10000p  383.5905m  387.1481m 
  169.20000p  383.9790m  387.3032m 
  169.30000p  384.3675m  387.4584m 
  169.40000p  384.7561m  387.6136m 
  169.50000p  385.1446m  387.7688m 
  169.60000p  385.5331m  387.9239m 
  169.70000p  385.9216m  388.0791m 
  169.80000p  386.3102m  388.2343m 
  169.90000p  386.6987m  388.3895m 
  170.00000p  387.0872m  388.5447m 
  170.10000p  387.4757m  388.6998m 
  170.20000p  387.8642m  388.8550m 
  170.30000p  388.2740m  388.9984m 
  170.40000p  388.7103m  389.1270m 
  170.50000p  389.1465m  389.2557m 
  170.60000p  389.5827m  389.3843m 
  170.70000p  390.0190m  389.5130m 
  170.80000p  390.4552m  389.6417m 
  170.90000p  390.8914m  389.7703m 
  171.00000p  391.3276m  389.8990m 
  171.10000p  391.7639m  390.0277m 
  171.20000p  392.2001m  390.1563m 
  171.30000p  392.6363m  390.2850m 
  171.40000p  393.0726m  390.4137m 
  171.50000p  393.5088m  390.5423m 
  171.60000p  393.9450m  390.6710m 
  171.70000p  394.3813m  390.7996m 
  171.80000p  394.8175m  390.9283m 
  171.90000p  395.2537m  391.0570m 
  172.00000p  395.6899m  391.1856m 
  172.10000p  396.1262m  391.3143m 
  172.20000p  396.5624m  391.4430m 
  172.30000p  396.9986m  391.5716m 
  172.40000p  397.4349m  391.7003m 
  172.50000p  397.8711m  391.8290m 
  172.60000p  398.3073m  391.9576m 
  172.70000p  398.7435m  392.0863m 
  172.80000p  399.1798m  392.2149m 
  172.90000p  399.6160m  392.3436m 
  173.00000p  400.0522m  392.4723m 
  173.10000p  400.4885m  392.6009m 
  173.20000p  400.9247m  392.7296m 
  173.30000p  401.3609m  392.8583m 
  173.40000p  401.7972m  392.9869m 
  173.50000p  402.2334m  393.1156m 
  173.60000p  402.6696m  393.2442m 
  173.70000p  403.1058m  393.3729m 
  173.80000p  403.5421m  393.5016m 
  173.90000p  403.9783m  393.6302m 
  174.00000p  404.4145m  393.7589m 
  174.10000p  404.8508m  393.8876m 
  174.20000p  405.2870m  394.0162m 
  174.30000p  405.7232m  394.1449m 
  174.40000p  406.1595m  394.2736m 
  174.50000p  406.5957m  394.4022m 
  174.60000p  407.0319m  394.5309m 
  174.70000p  407.4681m  394.6595m 
  174.80000p  407.9044m  394.7882m 
  174.90000p  408.3406m  394.9169m 
  175.00000p  408.7768m  395.0455m 
  175.10000p  409.2131m  395.1742m 
  175.20000p  409.6493m  395.3029m 
  175.30000p  410.0855m  395.4315m 
  175.40000p  410.5218m  395.5602m 
  175.50000p  410.9580m  395.6889m 
  175.60000p  411.3942m  395.8175m 
  175.70000p  411.8304m  395.9462m 
  175.80000p  412.2667m  396.0748m 
  175.90000p  412.7029m  396.2035m 
  176.00000p  413.1391m  396.3322m 
  176.10000p  413.5754m  396.4608m 
  176.20000p  414.0116m  396.5895m 
  176.30000p  414.4478m  396.7182m 
  176.40000p  414.8841m  396.8468m 
  176.50000p  415.3203m  396.9755m 
  176.60000p  415.7565m  397.1041m 
  176.70000p  416.1927m  397.2328m 
  176.80000p  416.6290m  397.3615m 
  176.90000p  417.0652m  397.4901m 
  177.00000p  417.5014m  397.6188m 
  177.10000p  417.9377m  397.7475m 
  177.20000p  418.3739m  397.8761m 
  177.30000p  418.8101m  398.0048m 
  177.40000p  419.2463m  398.1335m 
  177.50000p  419.6826m  398.2621m 
  177.60000p  420.1188m  398.3908m 
  177.70000p  420.5550m  398.5194m 
  177.80000p  421.0459m  398.6212m 
  177.90000p  421.5404m  398.7213m 
  178.00000p  422.0349m  398.8213m 
  178.10000p  422.5294m  398.9213m 
  178.20000p  423.0239m  399.0213m 
  178.30000p  423.5183m  399.1214m 
  178.40000p  424.0128m  399.2214m 
  178.50000p  424.5073m  399.3214m 
  178.60000p  425.0018m  399.4215m 
  178.70000p  425.4963m  399.5215m 
  178.80000p  425.9907m  399.6215m 
  178.90000p  426.4852m  399.7215m 
  179.00000p  426.9797m  399.8216m 
  179.10000p  427.4742m  399.9216m 
  179.20000p  427.9687m  400.0216m 
  179.30000p  428.4631m  400.1217m 
  179.40000p  428.9576m  400.2217m 
  179.50000p  429.4521m  400.3217m 
  179.60000p  429.9466m  400.4217m 
  179.70000p  430.4410m  400.5218m 
  179.80000p  430.9355m  400.6218m 
  179.90000p  431.4300m  400.7218m 
  180.00000p  431.9245m  400.8218m 
  180.10000p  432.4190m  400.9219m 
  180.20000p  432.9134m  401.0219m 
  180.30000p  433.4079m  401.1219m 
  180.40000p  433.9024m  401.2220m 
  180.50000p  434.3969m  401.3220m 
  180.60000p  434.8914m  401.4220m 
  180.70000p  435.3858m  401.5220m 
  180.80000p  435.8803m  401.6221m 
  180.90000p  436.3748m  401.7221m 
  181.00000p  436.8693m  401.8221m 
  181.10000p  437.3638m  401.9222m 
  181.20000p  437.8582m  402.0222m 
  181.30000p  438.3527m  402.1222m 
  181.40000p  438.8472m  402.2222m 
  181.50000p  439.3417m  402.3223m 
  181.60000p  439.8362m  402.4223m 
  181.70000p  440.3306m  402.5223m 
  181.80000p  440.8251m  402.6224m 
  181.90000p  441.3196m  402.7224m 
  182.00000p  441.8141m  402.8224m 
  182.10000p  442.3086m  402.9224m 
  182.20000p  442.8030m  403.0225m 
  182.30000p  443.2975m  403.1225m 
  182.40000p  443.7920m  403.2225m 
  182.50000p  444.2865m  403.3225m 
  182.60000p  444.7809m  403.4226m 
  182.70000p  445.2754m  403.5226m 
  182.80000p  445.7699m  403.6226m 
  182.90000p  446.2644m  403.7227m 
  183.00000p  446.7589m  403.8227m 
  183.10000p  447.2533m  403.9227m 
  183.20000p  447.7478m  404.0227m 
  183.30000p  448.2423m  404.1228m 
  183.40000p  448.7368m  404.2228m 
  183.50000p  449.2313m  404.3228m 
  183.60000p  449.7257m  404.4229m 
  183.70000p  450.2202m  404.5229m 
  183.80000p  450.7147m  404.6229m 
  183.90000p  451.2092m  404.7229m 
  184.00000p  451.7037m  404.8230m 
  184.10000p  452.1981m  404.9230m 
  184.20000p  452.6926m  405.0230m 
  184.30000p  453.1871m  405.1231m 
  184.40000p  453.6816m  405.2231m 
  184.50000p  454.1761m  405.3231m 
  184.60000p  454.6705m  405.4231m 
  184.70000p  455.1650m  405.5232m 
  184.80000p  455.6595m  405.6232m 
  184.90000p  456.1540m  405.7232m 
  185.00000p  456.6485m  405.8232m 
  185.10000p  457.1429m  405.9233m 
  185.20000p  457.6374m  406.0233m 
  185.30000p  458.1319m  406.1233m 
  185.40000p  458.6264m  406.2234m 
  185.50000p  459.1208m  406.3234m 
  185.60000p  459.6153m  406.4234m 
  185.70000p  460.1098m  406.5234m 
  185.80000p  460.6043m  406.6235m 
  185.90000p  461.1078m  406.7200m 
  186.00000p  461.6716m  406.7934m 
  186.10000p  462.2355m  406.8668m 
  186.20000p  462.7994m  406.9402m 
  186.30000p  463.3632m  407.0137m 
  186.40000p  463.9271m  407.0871m 
  186.50000p  464.4910m  407.1605m 
  186.60000p  465.0548m  407.2339m 
  186.70000p  465.6187m  407.3073m 
  186.80000p  466.1826m  407.3807m 
  186.90000p  466.7464m  407.4541m 
  187.00000p  467.3103m  407.5275m 
  187.10000p  467.8741m  407.6009m 
  187.20000p  468.4380m  407.6743m 
  187.30000p  469.0019m  407.7477m 
  187.40000p  469.5657m  407.8211m 
  187.50000p  470.1296m  407.8945m 
  187.60000p  470.6935m  407.9679m 
  187.70000p  471.2573m  408.0413m 
  187.80000p  471.8212m  408.1147m 
  187.90000p  472.3851m  408.1881m 
  188.00000p  472.9489m  408.2615m 
  188.10000p  473.5128m  408.3349m 
  188.20000p  474.0767m  408.4083m 
  188.30000p  474.6405m  408.4817m 
  188.40000p  475.2044m  408.5551m 
  188.50000p  475.7683m  408.6285m 
  188.60000p  476.3321m  408.7019m 
  188.70000p  476.8960m  408.7753m 
  188.80000p  477.4598m  408.8487m 
  188.90000p  478.0237m  408.9221m 
  189.00000p  478.5876m  408.9955m 
  189.10000p  479.1514m  409.0689m 
  189.20000p  479.7153m  409.1423m 
  189.30000p  480.2792m  409.2157m 
  189.40000p  480.8430m  409.2891m 
  189.50000p  481.4069m  409.3625m 
  189.60000p  481.9708m  409.4359m 
  189.70000p  482.5346m  409.5093m 
  189.80000p  483.0985m  409.5827m 
  189.90000p  483.6624m  409.6561m 
  190.00000p  484.2262m  409.7295m 
  190.10000p  484.7901m  409.8029m 
  190.20000p  485.3539m  409.8763m 
  190.30000p  485.9178m  409.9497m 
  190.40000p  486.4817m  410.0231m 
[...]
  950.00000p  748.1560m  807.2946m 
  950.10000p  748.1846m  807.1897m 
  950.20000p  748.2132m  807.0847m 
  950.30000p  748.2418m  806.9798m 
  950.40000p  748.2703m  806.8748m 
  950.50000p  748.2989m  806.7698m 
  950.60000p  748.3275m  806.6649m 
  950.70000p  748.3561m  806.5599m 
  950.80000p  748.3846m  806.4550m 
  950.90000p  748.4132m  806.3500m 
  951.00000p  748.4418m  806.2451m 
  951.10000p  748.4958m  805.5086m 
  951.20000p  748.5572m  804.5860m 
  951.30000p  748.6187m  803.6634m 
  951.40000p  748.6802m  802.7408m 
  951.50000p  748.7417m  801.8182m 
  951.60000p  748.8032m  800.8956m 
  951.70000p  748.8647m  799.9730m 
  951.80000p  748.9261m  799.0505m 
  951.90000p  748.9876m  798.1279m 
  952.00000p  749.0491m  797.2053m 
  952.10000p  749.1106m  796.2827m 
  952.20000p  749.1721m  795.3601m 
  952.30000p  749.2335m  794.4375m 
  952.40000p  749.2950m  793.5149m 
  952.50000p  749.3565m  792.5924m 
  952.60000p  749.4180m  791.6698m 
  952.70000p  749.4795m  790.7472m 
  952.80000p  749.5410m  789.8246m 
  952.90000p  749.6024m  788.9020m 
  953.00000p  749.6639m  787.9794m 
  953.10000p  749.7254m  787.0568m 
  953.20000p  749.7869m  786.1343m 
  953.30000p  749.8484m  785.2117m 
  953.40000p  749.9098m  784.2891m 
  953.50000p  749.9713m  783.3665m 
  953.60000p  750.0328m  782.4439m 
  953.70000p  750.0943m  781.5213m 
  953.80000p  750.1558m  780.5987m 
  953.90000p  750.2173m  779.6762m 
  954.00000p  750.2787m  778.7536m 
  954.10000p  750.3402m  777.8310m 
  954.20000p  750.4017m  776.9084m 
  954.30000p  750.4632m  775.9858m 
  954.40000p  750.5247m  775.0632m 
  954.50000p  750.5861m  774.1406m 
  954.60000p  750.6476m  773.2181m 
  954.70000p  750.7091m  772.2955m 
  954.80000p  750.7706m  771.3729m 
  954.90000p  750.8321m  770.4503m 
  955.00000p  750.8936m  769.5277m 
  955.10000p  750.9550m  768.6051m 
  955.20000p  751.0165m  767.6825m 
  955.30000p  751.0780m  766.7600m 
  955.40000p  751.1395m  765.8374m 
  955.50000p  751.2010m  764.9148m 
  955.60000p  751.2624m  763.9922m 
  955.70000p  751.3239m  763.0696m 
  955.80000p  751.3854m  762.1470m 
  955.90000p  751.4469m  761.2244m 
  956.00000p  751.5084m  760.3019m 
  956.10000p  751.5698m  759.3793m 
  956.20000p  751.6313m  758.4567m 
  956.30000p  751.6928m  757.5341m 
  956.40000p  751.7543m  756.6115m 
  956.50000p  751.8173m  755.6566m 
  956.60000p  751.9185m  753.9011m 
  956.70000p  752.0196m  752.1457m 
  956.80000p  752.1208m  750.3902m 
  956.90000p  752.2219m  748.6348m 
  957.00000p  752.3231m  746.8794m 
  957.10000p  752.4242m  745.1239m 
  957.20000p  752.5254m  743.3685m 
  957.30000p  752.6265m  741.6130m 
  957.40000p  752.7277m  739.8576m 
  957.50000p  752.8288m  738.1021m 
  957.60000p  752.9300m  736.3467m 
  957.70000p  753.0311m  734.5912m 
  957.80000p  753.1323m  732.8358m 
  957.90000p  753.2334m  731.0804m 
  958.00000p  753.3346m  729.3249m 
  958.10000p  753.4357m  727.5695m 
  958.20000p  753.5369m  725.8140m 
  958.30000p  753.6380m  724.0586m 
  958.40000p  753.7392m  722.3031m 
  958.50000p  753.8403m  720.5477m 
  958.60000p  753.9415m  718.7922m 
  958.70000p  754.0427m  717.0368m 
  958.80000p  754.1438m  715.2814m 
  958.90000p  754.2450m  713.5259m 
  959.00000p  754.3461m  711.7705m 
  959.10000p  754.4473m  710.0150m 
  959.20000p  754.5484m  708.2596m 
  959.30000p  754.6496m  706.5041m 
  959.40000p  754.7507m  704.7487m 
  959.50000p  754.8519m  702.9932m 
  959.60000p  754.9530m  701.2378m 
  959.70000p  755.0940m  699.2300m 
  959.80000p  755.2393m  697.1954m 
  959.90000p  755.3846m  695.1608m 
  960.00000p  755.5298m  693.1262m 
  960.10000p  755.6751m  691.0916m 
  960.20000p  755.8203m  689.0570m 
  960.30000p  755.9656m  687.0224m 
  960.40000p  756.1109m  684.9878m 
  960.50000p  756.2561m  682.9532m 
  960.60000p  756.4014m  680.9186m 
  960.70000p  756.5466m  678.8840m 
  960.80000p  756.6919m  676.8494m 
  960.90000p  756.8372m  674.8148m 
  961.00000p  756.9824m  672.7802m 
  961.10000p  757.1277m  670.7456m 
  961.20000p  757.2729m  668.7110m 
  961.30000p  757.4182m  666.6764m 
  961.40000p  757.5635m  664.6418m 
  961.50000p  757.7087m  662.6072m 
  961.60000p  757.8540m  660.5726m 
  961.70000p  757.9992m  658.5380m 
  961.80000p  758.1445m  656.5034m 
  961.90000p  758.2898m  654.4688m 
  962.00000p  758.4350m  652.4342m 
  962.10000p  758.5803m  650.3996m 
  962.20000p  758.7255m  648.3650m 
  962.30000p  758.8708m  646.3304m 
  962.40000p  759.0161m  644.2958m 
  962.50000p  759.1613m  642.2612m 
  962.60000p  759.3066m  640.2266m 
  962.70000p  759.4518m  638.1920m 
  962.80000p  759.5971m  636.1574m 
  962.90000p  759.7424m  634.1228m 
  963.00000p  759.8876m  632.0882m 
  963.10000p  760.0329m  630.0536m 
  963.20000p  760.1781m  628.0190m 
  963.30000p  760.3234m  625.9844m 
  963.40000p  760.4687m  623.9498m 
  963.50000p  760.6139m  621.9152m 
  963.60000p  760.7592m  619.8806m 
  963.70000p  760.9044m  617.8460m 
  963.80000p  761.0497m  615.8114m 
  963.90000p  761.1950m  613.7768m 
  964.00000p  761.3402m  611.7422m 
  964.10000p  761.4855m  609.7076m 
  964.20000p  761.6307m  607.6730m 
  964.30000p  761.7760m  605.6384m 
  964.40000p  761.9212m  603.6038m 
  964.50000p  762.0665m  601.5692m 
  964.60000p  762.2118m  599.5346m 
  964.70000p  762.3570m  597.5000m 
  964.80000p  762.5023m  595.4654m 
  964.90000p  762.6475m  593.4308m 
  965.00000p  762.7928m  591.3962m 
  965.10000p  762.9381m  589.3616m 
  965.20000p  763.0833m  587.3270m 
  965.30000p  763.2286m  585.2924m 
  965.40000p  763.3810m  583.2422m 
  965.50000p  763.5776m  581.0955m 
  965.60000p  763.7742m  578.9489m 
  965.70000p  763.9708m  576.8022m 
  965.80000p  764.1674m  574.6555m 
  965.90000p  764.3640m  572.5089m 
  966.00000p  764.5606m  570.3622m 
  966.10000p  764.7572m  568.2156m 
  966.20000p  764.9538m  566.0689m 
  966.30000p  765.1504m  563.9222m 
  966.40000p  765.3470m  561.7756m 
  966.50000p  765.5436m  559.6289m 
  966.60000p  765.7403m  557.4823m 
  966.70000p  765.9369m  555.3356m 
  966.80000p  766.1335m  553.1890m 
  966.90000p  766.3301m  551.0423m 
  967.00000p  766.5267m  548.8956m 
  967.10000p  766.7233m  546.7490m 
  967.20000p  766.9199m  544.6023m 
  967.30000p  767.1165m  542.4557m 
  967.40000p  767.3131m  540.3090m 
  967.50000p  767.5097m  538.1623m 
  967.60000p  767.7063m  536.0157m 
  967.70000p  767.9029m  533.8690m 
  967.80000p  768.0995m  531.7224m 
  967.90000p  768.2961m  529.5757m 
  968.00000p  768.4927m  527.4290m 
  968.10000p  768.6893m  525.2824m 
  968.20000p  768.8859m  523.1357m 
  968.30000p  769.0825m  520.9891m 
  968.40000p  769.2791m  518.8424m 
  968.50000p  769.4757m  516.6957m 
  968.60000p  769.6723m  514.5491m 
  968.70000p  769.8689m  512.4024m 
  968.80000p  770.0655m  510.2558m 
  968.90000p  770.2621m  508.1091m 
  969.00000p  770.4588m  505.9624m 
  969.10000p  770.6554m  503.8158m 
  969.20000p  770.8520m  501.6691m 
  969.30000p  771.0486m  499.5225m 
  969.40000p  771.2452m  497.3758m 
  969.50000p  771.4418m  495.2291m 
  969.60000p  771.6384m  493.0825m 
  969.70000p  771.8350m  490.9358m 
  969.80000p  772.0537m  488.8243m 
  969.90000p  772.3016m  486.7592m 
  970.00000p  772.5495m  484.6941m 
  970.10000p  772.7974m  482.6289m 
  970.20000p  773.0453m  480.5638m 
  970.30000p  773.2932m  478.4987m 
  970.40000p  773.5411m  476.4336m 
  970.50000p  773.7890m  474.3684m 
  970.60000p  774.0369m  472.3033m 
  970.70000p  774.2847m  470.2382m 
  970.80000p  774.5326m  468.1731m 
  970.90000p  774.7805m  466.1079m 
  971.00000p  775.0284m  464.0428m 
  971.10000p  775.2763m  461.9777m 
  971.20000p  775.5242m  459.9125m 
  971.30000p  775.7721m  457.8474m 
  971.40000p  776.0200m  455.7823m 
  971.50000p  776.2679m  453.7172m 
  971.60000p  776.5158m  451.6520m 
  971.70000p  776.7637m  449.5869m 
  971.80000p  777.0116m  447.5218m 
  971.90000p  777.2595m  445.4566m 
  972.00000p  777.5073m  443.3915m 
  972.10000p  777.7552m  441.3264m 
  972.20000p  778.0031m  439.2613m 
  972.30000p  778.2510m  437.1961m 
  972.40000p  778.4989m  435.1310m 
  972.50000p  778.7468m  433.0659m 
  972.60000p  778.9947m  431.0007m 
  972.70000p  779.2426m  428.9356m 
  972.80000p  779.4905m  426.8705m 
  972.90000p  779.7384m  424.8054m 
  973.00000p  779.9863m  422.7402m 
  973.10000p  780.2342m  420.6751m 
  973.20000p  780.4821m  418.6100m 
  973.30000p  780.7300m  416.5448m 
  973.40000p  780.9778m  414.4797m 
  973.50000p  781.2257m  412.4146m 
  973.60000p  781.4736m  410.3495m 
  973.70000p  781.7215m  408.2843m 
  973.80000p  781.9694m  406.2192m 
  973.90000p  782.2173m  404.1541m 
  974.00000p  782.4652m  402.0889m 
  974.10000p  782.7131m  400.0238m 
  974.20000p  782.9610m  397.9587m 
  974.30000p  783.2089m  395.8936m 
  974.40000p  783.4568m  393.8284m 
  974.50000p  783.7047m  391.7633m 
  974.60000p  783.9526m  389.6982m 
  974.70000p  784.2004m  387.6330m 
  974.80000p  784.4483m  385.5679m 
  974.90000p  784.6962m  383.5028m 
  975.00000p  784.9441m  381.4377m 
  975.10000p  785.1920m  379.3725m 
  975.20000p  785.4399m  377.3074m 
  975.30000p  785.6878m  375.2423m 
  975.40000p  785.9357m  373.1771m 
  975.50000p  786.1836m  371.1120m 
  975.60000p  786.4315m  369.0469m 
  975.70000p  786.6794m  366.9818m 
  975.80000p  786.9273m  364.9166m 
  975.90000p  787.1752m  362.8515m 
  976.00000p  787.4231m  360.7864m 
  976.10000p  787.6709m  358.7212m 
  976.20000p  787.9188m  356.6561m 
  976.30000p  788.1667m  354.5910m 
  976.40000p  788.4146m  352.5259m 
  976.50000p  788.6625m  350.4607m 
  976.60000p  788.9104m  348.3956m 
  976.70000p  789.1583m  346.3305m 
  976.80000p  789.4062m  344.2653m 
  976.90000p  789.6541m  342.2002m 
  977.00000p  789.9020m  340.1351m 
  977.10000p  790.1499m  338.0700m 
  977.20000p  790.3978m  336.0048m 
  977.30000p  790.6457m  333.9397m 
  977.40000p  790.9000m  331.9092m 
  977.50000p  791.1880m  330.0603m 
  977.60000p  791.4759m  328.2113m 
  977.70000p  791.7639m  326.3624m 
  977.80000p  792.0519m  324.5135m 
  977.90000p  792.3399m  322.6645m 
  978.00000p  792.6279m  320.8156m 
  978.10000p  792.9159m  318.9667m 
  978.20000p  793.2039m  317.1177m 
  978.30000p  793.4919m  315.2688m 
  978.40000p  793.7799m  313.4199m 
  978.50000p  794.0678m  311.5709m 
  978.60000p  794.3558m  309.7220m 
  978.70000p  794.6438m  307.8731m 
  978.80000p  794.9318m  306.0241m 
  978.90000p  795.2198m  304.1752m 
  979.00000p  795.5078m  302.3263m 
  979.10000p  795.7958m  300.4773m 
  979.20000p  796.0838m  298.6284m 
  979.30000p  796.3718m  296.7795m 
  979.40000p  796.6598m  294.9305m 
  979.50000p  796.9477m  293.0816m 
  979.60000p  797.2357m  291.2326m 
  979.70000p  797.5237m  289.3837m 
  979.80000p  797.8117m  287.5348m 
  979.90000p  798.0997m  285.6858m 
  980.00000p  798.3877m  283.8369m 
  980.10000p  798.6757m  281.9880m 
  980.20000p  798.9637m  280.1390m 
  980.30000p  799.2517m  278.2901m 
  980.40000p  799.5396m  276.4412m 
  980.50000p  799.8276m  274.5922m 
  980.60000p  800.1156m  272.7433m 
  980.70000p  800.4036m  270.8944m 
  980.80000p  800.6916m  269.0454m 
  980.90000p  800.9796m  267.1965m 
  981.00000p  801.2676m  265.3476m 
  981.10000p  801.5556m  263.4986m 
  981.20000p  801.8436m  261.6497m 
  981.30000p  802.1315m  259.8008m 
  981.40000p  802.4195m  257.9518m 
  981.50000p  802.7075m  256.1029m 
  981.60000p  802.9955m  254.2540m 
  981.70000p  803.2835m  252.4050m 
  981.80000p  803.5715m  250.5561m 
  981.90000p  803.8595m  248.7072m 
  982.00000p  804.1475m  246.8582m 
  982.10000p  804.4355m  245.0093m 
  982.20000p  804.7234m  243.1604m 
  982.30000p  805.0114m  241.3114m 
  982.40000p  805.2994m  239.4625m 
  982.50000p  805.5874m  237.6136m 
  982.60000p  805.8754m  235.7646m 
  982.70000p  806.1634m  233.9157m 
  982.80000p  806.4514m  232.0668m 
  982.90000p  806.7394m  230.2178m 
  983.00000p  807.0274m  228.3689m 
  983.10000p  807.3153m  226.5200m 
  983.20000p  807.6033m  224.6710m 
  983.30000p  807.8913m  222.8221m 
  983.40000p  808.1793m  220.9732m 
  983.50000p  808.4673m  219.1242m 
  983.60000p  808.7553m  217.2753m 
  983.70000p  809.0433m  215.4264m 
  983.80000p  809.3313m  213.5774m 
  983.90000p  809.6193m  211.7285m 
  984.00000p  809.9073m  209.8796m 
  984.10000p  810.1952m  208.0306m 
  984.20000p  810.4832m  206.1817m 
  984.30000p  810.7712m  204.3328m 
  984.40000p  811.0592m  202.4838m 
  984.50000p  811.3472m  200.6349m 
  984.60000p  811.6352m  198.7860m 
  984.70000p  811.9232m  196.9370m 
  984.80000p  812.2108m  195.1287m 
  984.90000p  812.4926m  193.8882m 
  985.00000p  812.7744m  192.6476m 
  985.10000p  813.0562m  191.4070m 
  985.20000p  813.3380m  190.1665m 
  985.30000p  813.6198m  188.9259m 
  985.40000p  813.9016m  187.6853m 
  985.50000p  814.1834m  186.4448m 
  985.60000p  814.4652m  185.2042m 
  985.70000p  814.7470m  183.9636m 
  985.80000p  815.0288m  182.7231m 
  985.90000p  815.3106m  181.4825m 
  986.00000p  815.5924m  180.2419m 
  986.10000p  815.8742m  179.0014m 
  986.20000p  816.1560m  177.7608m 
  986.30000p  816.4378m  176.5202m 
  986.40000p  816.7196m  175.2796m 
  986.50000p  817.0014m  174.0391m 
  986.60000p  817.2833m  172.7985m 
  986.70000p  817.5651m  171.5579m 
  986.80000p  817.8469m  170.3174m 
  986.90000p  818.1287m  169.0768m 
  987.00000p  818.4105m  167.8362m 
  987.10000p  818.6923m  166.5957m 
  987.20000p  818.9741m  165.3551m 
  987.30000p  819.2559m  164.1145m 
  987.40000p  819.5377m  162.8740m 
  987.50000p  819.8195m  161.6334m 
  987.60000p  820.1013m  160.3928m 
  987.70000p  820.3831m  159.1523m 
  987.80000p  820.6649m  157.9117m 
  987.90000p  820.9467m  156.6711m 
  988.00000p  821.2285m  155.4306m 
  988.10000p  821.5103m  154.1900m 
  988.20000p  821.7921m  152.9494m 
  988.30000p  822.0739m  151.7088m 
  988.40000p  822.3558m  150.4683m 
  988.50000p  822.6376m  149.2277m 
  988.60000p  822.9194m  147.9871m 
  988.70000p  823.2012m  146.7466m 
  988.80000p  823.4830m  145.5060m 
  988.90000p  823.7648m  144.2654m 
  989.00000p  824.0466m  143.0249m 
  989.10000p  824.3284m  141.7843m 
  989.20000p  824.6102m  140.5437m 
  989.30000p  824.8920m  139.3032m 
  989.40000p  825.1738m  138.0626m 
  989.50000p  825.4556m  136.8220m 
  989.60000p  825.7374m  135.5815m 
  989.70000p  826.0192m  134.3409m 
  989.80000p  826.3010m  133.1003m 
  989.90000p  826.5828m  131.8597m 
  990.00000p  826.8646m  130.6192m 
  990.10000p  827.1464m  129.3786m 
  990.20000p  827.4283m  128.1380m 
  990.30000p  827.7101m  126.8975m 
  990.40000p  827.9919m  125.6569m 
  990.50000p  828.2737m  124.4163m 
  990.60000p  828.5555m  123.1758m 
  990.70000p  828.8373m  121.9352m 
  990.80000p  829.1191m  120.6946m 
  990.90000p  829.4009m  119.4541m 
  991.00000p  829.6827m  118.2135m 
  991.10000p  829.9645m  116.9729m 
  991.20000p  830.2463m  115.7324m 
  991.30000p  830.5281m  114.4918m 
  991.40000p  830.8099m  113.2512m 
  991.50000p  831.0917m  112.0106m 
  991.60000p  831.3735m  110.7701m 
  991.70000p  831.6553m  109.5295m 
  991.80000p  831.9371m  108.2889m 
  991.90000p  832.2189m  107.0484m 
  992.00000p  832.5008m  105.8078m 
  992.10000p  832.7826m  104.5672m 
  992.20000p  833.0644m  103.3267m 
  992.30000p  833.3462m  102.0861m 
  992.40000p  833.6280m  100.8455m 
  992.50000p  833.9098m   99.6050m 
  992.60000p  834.1916m   98.3644m 
  992.70000p  834.4734m   97.1238m 
  992.80000p  834.7552m   95.8833m 
  992.90000p  835.0370m   94.6427m 
  993.00000p  835.3188m   93.4021m 
  993.10000p  835.6006m   92.1616m 
  993.20000p  835.8824m   90.9210m 
  993.30000p  836.1642m   89.6804m 
  993.40000p  836.4460m   88.4398m 
  993.50000p  836.7278m   87.1993m 
  993.60000p  837.0096m   85.9587m 
  993.70000p  837.2914m   84.7181m 
  993.80000p  837.5733m   83.4776m 
  993.90000p  837.8551m   82.2370m 
  994.00000p  838.1369m   80.9964m 
  994.10000p  838.4187m   79.7559m 
  994.20000p  838.7005m   78.5153m 
  994.30000p  838.9823m   77.2747m 
  994.40000p  839.2641m   76.0342m 
  994.50000p  839.5459m   74.7936m 
  994.60000p  839.8277m   73.5530m 
  994.70000p  840.1095m   72.3125m 
  994.80000p  840.3913m   71.0719m 
  994.90000p  840.6731m   69.8313m 
  995.00000p  840.9549m   68.5907m 
  995.10000p  841.2142m   67.7680m 
  995.20000p  841.4623m   67.1505m 
  995.30000p  841.7105m   66.5330m 
  995.40000p  841.9587m   65.9155m 
  995.50000p  842.2068m   65.2979m 
  995.60000p  842.4550m   64.6804m 
  995.70000p  842.7032m   64.0629m 
  995.80000p  842.9513m   63.4454m 
  995.90000p  843.1995m   62.8278m 
  996.00000p  843.4477m   62.2103m 
  996.10000p  843.6958m   61.5928m 
  996.20000p  843.9440m   60.9753m 
  996.30000p  844.1922m   60.3577m 
  996.40000p  844.4403m   59.7402m 
  996.50000p  844.6885m   59.1227m 
  996.60000p  844.9366m   58.5051m 
  996.70000p  845.1848m   57.8876m 
  996.80000p  845.4330m   57.2701m 
  996.90000p  845.6811m   56.6526m 
  997.00000p  845.9293m   56.0350m 
  997.10000p  846.1775m   55.4175m 
  997.20000p  846.4256m   54.8000m 
  997.30000p  846.6738m   54.1825m 
  997.40000p  846.9220m   53.5649m 
  997.50000p  847.1701m   52.9474m 
  997.60000p  847.4183m   52.3299m 
  997.70000p  847.6665m   51.7123m 
  997.80000p  847.9146m   51.0948m 
  997.90000p  848.1628m   50.4773m 
  998.00000p  848.4110m   49.8598m 
  998.10000p  848.6591m   49.2422m 
  998.20000p  848.9073m   48.6247m 
  998.30000p  849.1555m   48.0072m 
  998.40000p  849.4036m   47.3897m 
  998.50000p  849.6518m   46.7721m 
  998.60000p  849.9000m   46.1546m 
  998.70000p  850.1481m   45.5371m 
  998.80000p  850.3963m   44.9196m 
  998.90000p  850.6445m   44.3020m 
  999.00000p  850.8926m   43.6845m 
  999.10000p  851.1408m   43.0670m 
  999.20000p  851.3890m   42.4494m 
  999.30000p  851.6371m   41.8319m 
  999.40000p  851.8853m   41.2144m 
  999.50000p  852.1335m   40.5969m 
  999.60000p  852.3816m   39.9793m 
  999.70000p  852.6298m   39.3618m 
  999.80000p  852.8779m   38.7443m 
  999.90000p  853.1261m   38.1268m 
    1.00000n  853.3743m   37.5092m 
y

          ***** job concluded
 ******  
 * eda yan

 ****** job statistics summary tnom=  25.000 temp=  25.000 ******
  
 ******  Machine Information  ******
 CPU:
 model name	: Intel(R) Xeon(R) CPU E7- 8837  @ 2.67GHz
 cpu MHz	: 2663.941
  
 OS:
 Linux version 3.16.0-10-amd64 (debian-kernel@lists.debian.org) (gcc version 4.9.2 (Debian 4.9.2-10+deb8u2) ) #1 SMP Debian 3.16.81-1 (2020-01-17)


  ******  HSPICE Threads Information  ******

  Command Line Threads Count :     1
  Available CPU Count        :    32
  Actual Threads Count       :     1


  ******  Circuit Statistics  ******
  # nodes       =     116 # elements   =      34
  # resistors   =       1 # capacitors =       2 # inductors   =       0
  # mutual_inds =       0 # vccs       =       0 # vcvs        =       0
  # cccs        =       0 # ccvs       =       0 # volt_srcs   =       7
  # curr_srcs   =       0 # diodes     =       0 # bjts        =       0
  # jfets       =       0 # mosfets    =      24 # U elements  =       0
  # T elements  =       0 # W elements =       0 # B elements  =       0
  # S elements  =       0 # P elements =       0 # va device   =       0
  # vector_srcs =       0 # N elements =       0


  ******  Runtime Statistics (seconds)  ******

  analysis           time    # points   tot. iter  conv.iter
  op point           0.01           1          10
  transient          0.24       10001         642         242 rev=        21
  readin             0.04
  errchk             0.01
  setup              0.00
  output             0.00


           peak memory used        312.56 megabytes
           total cpu time            0.48 seconds
           total elapsed time        0.31 seconds
           job started at     02:05:40 05/12/2020
           job ended   at     02:05:40 05/12/2020



>info:         ***** hspice job concluded
 lic: Release hspice token(s) 
 lic: total license checkout elapse time:        0.06(s)
