Using: /opt/synopsys/hspice/O-2018.09-SP2-2/hspice/linux64/hspice c17.sp
 ****** HSPICE -- O-2018.09-SP2-2 linux64 (May  9 2019) ******                  
  Copyright (c) 1986 - 2020 by Synopsys, Inc. All Rights Reserved.              
  This software and the associated documentation are proprietary
  to Synopsys, Inc. This software may only be used in accordance
  with the terms and conditions of a written license agreement with
  Synopsys, Inc. All other use, reproduction, or distribution of
  this software is strictly prohibited.
  Input File: c17.sp                                                            
  Command line options: /opt/synopsys/hspice/O-2018.09-SP2-2/hspice/linux64/hspice c17.sp
  Start time: Tue May 12 01:58:16 2020
 lic:  
 lic: FLEXlm: SDK_11.7.3 
 lic: USER:   mitsushij            HOSTNAME: sahand 
 lic: HOSTID: "80c16e72eecb"       PID:      75543 
 lic: Using FLEXlm license file: 
 lic: 1720@ics-lic2.usc.edu 
 lic: Checkout 1 hspice 
 lic: License/Maintenance for hspice will expire on 30-jun-2021/2019.06 
 lic: 1(in_use)/50(total) FLOATING license(s) on SERVER 1720@ics-lic2.usc.edu 
 lic:   
1****** HSPICE -- O-2018.09-SP2-2 linux64 (May  9 2019) ******                  
 ******  
 * eda yan

 ****** circuit name directory
 circuit number to circuit name directory
   number circuitname                     definition         multiplier
        0 main circuit
        1 xnand2_1.                       nand2              1.00 
        2 xnand2_2.                       nand2              1.00 
        3 xnand2_3.                       nand2              1.00 
        4 xnand2_4.                       nand2              1.00 
        5 xnand2_5.                       nand2              1.00 
        6 xnand2_6.                       nand2              1.00 
  **info** (c17.sp:24) DC voltage reset to initial transient source value in source 0:vn1. new dc=0.0000D+00
  **warning** (nmos:mn1 (./gate_inventory_gen.sp:18)) Warning:  Acde = 0.231197 may be too small in BSIM4 model with w=3.2e-08 l=1.6e-08.
  

  **warning** the following singular supplies were terminated to 1 meg resistor 
          supply       node1            node2
(c17.sp:10)vlo                     0:lo               defined in subckt 0                     0:0                defined in subckt 0               
      

Element variations(Local):   element              parameter
 **info** set option symb=1 internally to help for convergence.
 *****************************************************************
 ******  option summary
 ******
 runlvl  = 3         bypass  = 2.0000    
 **info** dc convergence successful at Newton-Raphson method 
 ******  
 * eda yan

 ****** operating point information tnom=  25.000 temp=  25.000 ******
 ****** operating point status is all       simulation time is     0.     
    node    =voltage      node    =voltage      node    =voltage

 +0:hi      = 900.0000m 0:lo      =   0.      0:n1      =   0.     
 +0:n10     = 899.9938m 0:n11     = 899.9939m 0:n16     = 899.9799m
 +0:n19     = 899.9891m 0:n2      =   0.      0:n22     =   5.2101u
 +0:n23     =   5.2098u 0:n3      =   0.      0:n6      =   0.     
 +0:n7      =   0.      1:n1      =  52.9516m 2:n1      =  52.9516m
 +3:n1      =   1.2445u 4:n1      = 622.4075m 5:n1      =   3.8286u
 +6:n1      =   3.8283u


 **** voltage sources

 subckt                                                                    
 element  0:vhi      0:vlo      0:vn1      0:vn2      0:vn3      0:vn6     
  volts    900.0000m    0.         0.         0.         0.         0.     
  current -902.6514p    0.        41.8998p   41.9000p   83.7996p   41.8998p
  power    812.3863p    0.         0.         0.         0.         0.     

 subckt             
 element  0:vn7     
  volts      0.     
  current   41.8998p
  power      0.     

     total voltage source power dissipation=  812.3863p       watts




 **** mosfets


 subckt   xnand2_1   xnand2_1   xnand2_1   xnand2_1   xnand2_2   xnand2_2  
 element  1:mp2      1:mp1      1:mn1      1:mn2      2:mp2      2:mp1     
 model    0:pmos     0:pmos     0:nmos     0:nmos     0:pmos     0:pmos    
 region   Linear     Linear     Cutoff     Cutoff     Linear     Linear    
  id       -85.3043p  -85.3043p  127.0803f   12.4482f  -84.3225p  -84.3225p
  ibs     -1.177e-26 -1.177e-26  -52.9538f  5.783e-26 -1.177e-26 -1.177e-26
  ibd        8.5666a    8.5666a -909.9938f  -61.6783f    8.4680a    8.4680a
  vgs     -900.0000m -900.0000m  -52.9516m    0.      -900.0000m -900.0000m
  vds       -6.1667u   -6.1667u  847.0423m   52.9516m   -6.0957u   -6.0957u
  vbs        0.         0.       -52.9516m    0.         0.         0.     
  vth     -681.8334m -681.8334m  544.9000m  671.5852m -681.8334m -681.8334m
  vdsat   -223.2405m -223.2405m   43.2181m   43.7698m -223.2404m -223.2404m
  vod     -218.1666m -218.1666m -597.8516m -671.5852m -218.1666m -218.1666m
  beta      77.4017u   77.4017u  528.9543u  423.7186u   77.4017u   77.4017u
  gam eff  400.0000m  400.0000m  400.0000m  400.0000m  400.0000m  400.0000m
  gm       402.3646p  402.3646p    3.4571p  335.8388f  397.7339p  397.7339p
  gds       13.8331u   13.8331u  697.6665f  120.7312f   13.8331u   13.8331u
  gmb       91.2741p   91.2741p    1.0001p  105.2450f   90.2237p   90.2237p
  cdtot     33.2543a   33.2543a   17.5082a   22.8839a   33.2543a   33.2543a
  cgtot     28.4283a   28.4283a   15.1530a   18.2494a   28.4283a   28.4283a
  cstot     37.1828a   37.1828a   32.3045a   33.2133a   37.1828a   37.1828a
  cbtot     43.9374a   43.9374a   41.4635a   44.6516a   43.9374a   43.9374a
  cgs       17.0091a   17.0091a    7.1830a    7.6646a   17.0091a   17.0091a
  cgd       10.6808a   10.6808a    4.5682a    7.1829a   10.6808a   10.6808a



 subckt   xnand2_2   xnand2_2   xnand2_3   xnand2_3   xnand2_3   xnand2_3  
 element  2:mn1      2:mn2      3:mp2      3:mp1      3:mn1      3:mn2     
 model    0:nmos     0:nmos     0:pmos     0:pmos     0:nmos     0:nmos    
 region   Cutoff     Cutoff     Cutoff     Linear     Cutoff     Linear    
  id       127.0803f   12.4482f -3.751e-19 -278.2718p    1.0810p   63.9329p
  ibs      -52.9538f  5.783e-26  2.221e-28 -1.188e-26   -1.2447a  2.022e-26
  ibd     -909.9939f  -61.6783f   27.9434a   27.9434a -909.9799f   -1.7290a
  vgs      -52.9516m    0.        -6.0957u -900.0000m   -1.2445u  899.9939m
  vds      847.0423m   52.9516m  -20.1165u  -20.1165u  899.9786m    1.2445u
  vbs      -52.9516m    0.         0.         0.        -1.2445u    0.     
  vth      544.9000m  671.5852m -681.8296m -681.8296m  524.9596m  680.7513m
  vdsat     43.2181m   43.7698m  -46.7962m -223.2438m   43.0662m  196.1743m
  vod     -597.8516m -671.5852m  681.8235m -218.1704m -524.9608m  219.2426m
  beta     528.9543u  423.7186u   69.2338u   77.4020u  548.3096u  353.0839u
  gam eff  400.0000m  400.0000m  400.0000m  400.0000m  400.0000m  400.0000m
  gm         3.4571p  335.8388f   10.3987a    1.3126n   29.1416p  192.2466p
  gds      697.6666f  120.7312f   18.6445f   13.8328u    5.9843p   51.3703u
  gmb        1.0001p  105.2450f    3.1008a  297.7462p    8.4303p   53.3533p
  cdtot     17.5082a   22.8839a   23.6243a   33.2522a   17.5083a   36.1271a
  cgtot     15.1530a   18.2494a   18.2982a   28.4282a   15.6346a   30.4146a
  cstot     32.3045a   33.2133a   33.2054a   37.1839a   33.2133a   36.8387a
  cbtot     41.4635a   44.6516a   44.5018a   43.9372a   41.8907a   44.3134a
  cgs        7.1830a    7.6646a    7.6567a   17.0097a    7.6646a   17.7510a
  cgd        4.5682a    7.1829a    7.6564a   10.6801a    4.5682a   12.0534a



 subckt   xnand2_4   xnand2_4   xnand2_4   xnand2_4   xnand2_5   xnand2_5  
 element  4:mp2      4:mp1      4:mn1      4:mn2      5:mp2      5:mp1     
 model    0:pmos     0:pmos     0:nmos     0:nmos     0:pmos     0:pmos    
 region   Linear     Cutoff     Cutoff     Cutoff     Cutoff     Cutoff    
  id      -151.0368p -2.036e-19    1.5016p  246.8030f   -1.1823p   -1.1818p
  ibs     -1.188e-26  2.221e-28 -622.4100f  5.929e-25 -8.532e-25 -8.532e-25
  ibd       15.1674a   15.1674a -909.9891f -632.4075f  909.9948f  909.9948f
  vgs     -900.0000m   -6.0957u  277.5864m    0.       -20.1165u   -6.1667u
  vds      -10.9185u  -10.9185u  277.5816m  622.4075m -899.9948m -899.9948m
  vbs        0.         0.      -622.4075m    0.         0.         0.     
  vth     -681.8321m -681.8321m  744.4977m  573.0087m -436.4074m -436.4074m
  vdsat   -223.2416m  -46.7962m   44.1132m   43.3166m  -46.4773m  -46.4773m
  vod     -218.1679m  681.8260m -466.9112m -573.0087m  436.3873m  436.4012m
  beta      77.4018u   69.2336u  375.1399u  503.0351u   98.7210u   98.7210u
  gam eff  400.0000m  400.0000m  400.0000m  400.0000m  400.0000m  400.0000m
  gm       712.4138p    5.6442a   43.4967p    6.6561p   32.7275p   32.7149p
  gds       13.8330u   18.6459f    8.0937p    1.2688p   12.0541p   12.0495p
  gmb      161.6068p    1.6831a    8.6160p    1.9778p    8.4810p    8.4778p
  cdtot     33.2536a   23.6245a   20.6046a   18.4172a   17.5003a   17.5003a
  cgtot     28.4283a   18.2983a   19.1543a   15.8553a   15.2021a   15.2020a
  cstot     37.1832a   33.2054a   31.0248a   33.2133a   33.2055a   33.2054a
  cbtot     43.9373a   44.5019a   37.0157a   42.5790a   41.4739a   41.4740a
  cgs       17.0093a    7.6567a    9.2195a    7.6646a    7.6568a    7.6567a
  cgd       10.6806a    7.6565a    7.6646a    4.7888a    4.5602a    4.5602a



 subckt   xnand2_5   xnand2_5   xnand2_6   xnand2_6   xnand2_6   xnand2_6  
 element  5:mn1      5:mn2      6:mp2      6:mp1      6:mn1      6:mn2     
 model    0:nmos     0:nmos     0:pmos     0:pmos     0:nmos     0:nmos    
 region   Linear     Linear     Cutoff     Cutoff     Linear     Linear    
  id        70.9710p  196.6656p   -1.1820p   -1.1823p   70.9640p  196.6562p
  ibs       -3.8289a  2.021e-26 -8.532e-25 -8.532e-25   -3.8287a  2.022e-26
  ibd       -7.2379a   -5.3186a  909.9948f  909.9948f   -7.2374a   -5.3182a
  vgs      899.9900m  899.9799m  -10.9185u  -20.1165u  899.9761m  899.9891m
  vds        1.3816u    3.8286u -899.9948m -899.9948m    1.3815u    3.8283u
  vbs       -3.8286u    0.         0.         0.        -3.8283u    0.     
  vth      680.7521m  680.7508m -436.4074m -436.4074m  680.7521m  680.7508m
  vdsat    196.1713m  196.1652m  -46.4773m  -46.4773m  196.1620m  196.1714m
  vod      219.2380m  219.2290m  436.3965m  436.3873m  219.2240m  219.2382m
  beta     353.0847u  353.0878u   98.7210u   98.7210u  353.0885u  353.0853u
  gam eff  400.0000m  400.0000m  400.0000m  400.0000m  400.0000m  400.0000m
  gm       213.4167p  591.4319p   32.7192p   32.7275p  213.4152p  591.3675p
  gds       51.3695u   51.3677u   12.0510p   12.0541p   51.3673u   51.3691u
  gmb       59.2280p  164.1333p    8.4789p    8.4810p   59.2262p  164.1178p
  cdtot     36.1270a   36.1263a   17.5003a   17.5003a   36.1267a   36.1265a
  cgtot     30.4146a   30.4145a   15.2021a   15.2021a   30.4145a   30.4145a
  cstot     36.8387a   36.8391a   33.2055a   33.2055a   36.8388a   36.8390a
  cbtot     44.3133a   44.3134a   41.4740a   41.4739a   44.3133a   44.3134a
  cgs       17.7510a   17.7511a    7.6567a    7.6568a   17.7510a   17.7511a
  cgd       12.0534a   12.0532a    4.5602a    4.5602a   12.0533a   12.0532a



 ******
 * eda yan

 ****** transient analysis tnom=  25.000 temp=  25.000 ******
x

 time         voltage    voltage   
             n22        n23        
    0.          5.2101u    5.2098u 
   10.00000f    5.2101u    5.2098u 
   20.00000f    5.2101u    5.2098u 
   30.00000f    5.2101u    5.2098u 
   40.00000f    5.2101u    5.2098u 
   50.00000f    5.2101u    5.2098u 
   60.00000f    5.2101u    5.2098u 
   70.00000f    5.2101u    5.2098u 
   80.00000f    5.2101u    5.2098u 
   90.00000f    5.2101u    5.2098u 
  100.00000f    5.2101u    5.2098u 
  110.00000f    5.2101u    5.2098u 
  120.00000f    5.2101u    5.2098u 
  130.00000f    5.2101u    5.2098u 
  140.00000f    5.2101u    5.2098u 
  150.00000f    5.2101u    5.2098u 
  160.00000f    5.2101u    5.2098u 
  170.00000f    5.2101u    5.2098u 
  180.00000f    5.2101u    5.2098u 
  190.00000f    5.2101u    5.2098u 
  200.00000f    5.2101u    5.2098u 
  210.00000f    5.2101u    5.2098u 
  220.00000f    5.2101u    5.2098u 
  230.00000f    5.2101u    5.2098u 
  240.00000f    5.2101u    5.2098u 
  250.00000f    5.2101u    5.2098u 
  260.00000f    5.2101u    5.2098u 
  270.00000f    5.2101u    5.2098u 
  280.00000f    5.2101u    5.2098u 
  290.00000f    5.2101u    5.2098u 
  300.00000f    5.2101u    5.2098u 
  310.00000f    5.2101u    5.2098u 
  320.00000f    5.2101u    5.2098u 
  330.00000f    5.2101u    5.2098u 
  340.00000f    5.2101u    5.2098u 
  350.00000f    5.2101u    5.2098u 
  360.00000f    5.2101u    5.2098u 
  370.00000f    5.2101u    5.2098u 
  380.00000f    5.2101u    5.2098u 
  390.00000f    5.2101u    5.2098u 
  400.00000f    5.2101u    5.2098u 
  410.00000f    5.2101u    5.2098u 
  420.00000f    5.2101u    5.2098u 
  430.00000f    5.2101u    5.2098u 
  440.00000f    5.2101u    5.2098u 
  450.00000f    5.2101u    5.2098u 
  460.00000f    5.2101u    5.2098u 
  470.00000f    5.2101u    5.2098u 
  480.00000f    5.2101u    5.2098u 
  490.00000f    5.2101u    5.2098u 
  500.00000f    5.2101u    5.2098u 
  510.00000f    5.2101u    5.2098u 
  520.00000f    5.2101u    5.2098u 
  530.00000f    5.2101u    5.2098u 
  540.00000f    5.2101u    5.2098u 
  550.00000f    5.2101u    5.2098u 
  560.00000f    5.2101u    5.2098u 
  570.00000f    5.2101u    5.2098u 
  580.00000f    5.2101u    5.2098u 
  590.00000f    5.2101u    5.2098u 
  600.00000f    5.2101u    5.2098u 
  610.00000f    5.2101u    5.2098u 
  620.00000f    5.2101u    5.2098u 
  630.00000f    5.2101u    5.2098u 
  640.00000f    5.2101u    5.2098u 
  650.00000f    5.2101u    5.2098u 
  660.00000f    5.2101u    5.2098u 
  670.00000f    5.2101u    5.2098u 
  680.00000f    5.2101u    5.2098u 
  690.00000f    5.2101u    5.2098u 
  700.00000f    5.2101u    5.2098u 
  710.00000f    5.2101u    5.2098u 
  720.00000f    5.2101u    5.2098u 
  730.00000f    5.2101u    5.2098u 
  740.00000f    5.2101u    5.2098u 
  750.00000f    5.2101u    5.2098u 
  760.00000f    5.2101u    5.2098u 
  770.00000f    5.2101u    5.2098u 
  780.00000f    5.2101u    5.2098u 
  790.00000f    5.2101u    5.2098u 
  800.00000f    5.2101u    5.2098u 
  810.00000f    5.2101u    5.2098u 
  820.00000f    5.2101u    5.2098u 
  830.00000f    5.2101u    5.2098u 
  840.00000f    5.2101u    5.2098u 
  850.00000f    5.2101u    5.2098u 
  860.00000f    5.2101u    5.2098u 
  870.00000f    5.2101u    5.2098u 
  880.00000f    5.2101u    5.2098u 
  890.00000f    5.2101u    5.2098u 
  900.00000f    5.2101u    5.2098u 
  910.00000f    5.2101u    5.2098u 
  920.00000f    5.2101u    5.2098u 
  930.00000f    5.2101u    5.2098u 
  940.00000f    5.2101u    5.2098u 
  950.00000f    5.2101u    5.2098u 
  960.00000f    5.2101u    5.2098u 
  970.00000f    5.2101u    5.2098u 
  980.00000f    5.2101u    5.2098u 
  990.00000f    5.2101u    5.2098u 
    1.00000p    5.2101u    5.2098u 
    1.01000p   16.6152u   12.2788u 
    1.02000p   28.0202u   19.3479u 
    1.03000p   39.4252u   26.4169u 
    1.04000p   50.8302u   33.4860u 
    1.05000p   62.2352u   40.5550u 
    1.06000p   73.6402u   47.6241u 
    1.07000p   85.0452u   54.6931u 
    1.08000p   96.4502u   61.7622u 
    1.09000p  107.8553u   68.8312u 
    1.10000p  119.2603u   75.9003u 
    1.11000p  130.6653u   82.9693u 
    1.12000p  142.0703u   90.0384u 
    1.13000p  153.4753u   97.1074u 
    1.14000p  164.8803u  104.1765u 
    1.15000p  176.2853u  111.2455u 
    1.16000p  187.6904u  118.3146u 
    1.17000p  199.0954u  125.3836u 
    1.18000p  210.5004u  132.4527u 
    1.19000p  221.9054u  139.5217u 
    1.20000p  233.3104u  146.5908u 
    1.21000p  244.7154u  153.6598u 
    1.22000p  256.1204u  160.7289u 
    1.23000p  267.5254u  167.7979u 
    1.24000p  278.9305u  174.8670u 
    1.25000p  290.3355u  181.9360u 
    1.26000p  301.7405u  189.0050u 
    1.27000p  313.1455u  196.0741u 
    1.28000p  324.5505u  203.1431u 
    1.29000p  335.9555u  210.2122u 
    1.30000p  347.3605u  217.2812u 
    1.31000p  358.7656u  224.3503u 
    1.32000p  370.1706u  231.4193u 
    1.33000p  381.5756u  238.4884u 
    1.34000p  392.9806u  245.5574u 
    1.35000p  404.3856u  252.6265u 
    1.36000p  415.7906u  259.6955u 
    1.37000p  427.1956u  266.7646u 
    1.38000p  438.6007u  273.8336u 
    1.39000p  450.0057u  280.9027u 
    1.40000p  461.4107u  287.9717u 
    1.41000p  472.8157u  295.0408u 
    1.42000p  484.2207u  302.1098u 
    1.43000p  495.6257u  309.1789u 
    1.44000p  507.0307u  316.2479u 
    1.45000p  518.4357u  323.3170u 
    1.46000p  529.8408u  330.3860u 
    1.47000p  541.2458u  337.4551u 
    1.48000p  552.6508u  344.5241u 
    1.49000p  564.0558u  351.5932u 
    1.50000p  575.4608u  358.6622u 
    1.51000p  586.8658u  365.7313u 
    1.52000p  598.2708u  372.8003u 
    1.53000p  609.6759u  379.8694u 
    1.54000p  621.0809u  386.9384u 
    1.55000p  632.4859u  394.0075u 
    1.56000p  643.8909u  401.0765u 
    1.57000p  655.2959u  408.1456u 
    1.58000p  666.7009u  415.2146u 
    1.59000p  678.1059u  422.2837u 
    1.60000p  689.5110u  429.3527u 
    1.61000p  700.9160u  436.4218u 
    1.62000p  712.3210u  443.4908u 
    1.63000p  723.7260u  450.5599u 
    1.64000p  735.1310u  457.6289u 
    1.65000p  746.5360u  464.6980u 
    1.66000p  757.9410u  471.7670u 
    1.67000p  769.3460u  478.8361u 
    1.68000p  780.7511u  485.9051u 
    1.69000p  792.1561u  492.9742u 
    1.70000p  803.5611u  500.0432u 
    1.71000p  814.9661u  507.1123u 
    1.72000p  826.3711u  514.1813u 
    1.73000p  837.7761u  521.2504u 
    1.74000p  849.1811u  528.3194u 
    1.75000p  860.5862u  535.3885u 
    1.76000p  871.9912u  542.4575u 
    1.77000p  883.3962u  549.5266u 
    1.78000p  894.8012u  556.5956u 
    1.79000p  906.2062u  563.6647u 
    1.80000p  917.6112u  570.7337u 
    1.81000p  929.0162u  577.8028u 
    1.82000p  940.4212u  584.8718u 
    1.83000p  951.8263u  591.9409u 
    1.84000p  963.2313u  599.0099u 
    1.85000p  974.6363u  606.0790u 
    1.86000p  986.0413u  613.1480u 
    1.87000p  997.4463u  620.2170u 
    1.88000p    1.0089m  627.2861u 
    1.89000p    1.0203m  634.3551u 
    1.90000p    1.0317m  641.4242u 
    1.91000p    1.0431m  648.4932u 
    1.92000p    1.0545m  655.5623u 
    1.93000p    1.0659m  662.6313u 
    1.94000p    1.0773m  669.7004u 
    1.95000p    1.0887m  676.7694u 
    1.96000p    1.1001m  683.8385u 
    1.97000p    1.1115m  690.9075u 
    1.98000p    1.1229m  697.9766u 
    1.99000p    1.1343m  705.0456u 
    2.00000p    1.1457m  712.1147u 
    2.01000p    1.1567m  719.1340u 
    2.02000p    1.1676m  726.1534u 
    2.03000p    1.1786m  733.1728u 
    2.04000p    1.1895m  740.1921u 
    2.05000p    1.2005m  747.2115u 
    2.06000p    1.2115m  754.2308u 
    2.07000p    1.2224m  761.2502u 
    2.08000p    1.2334m  768.2695u 
    2.09000p    1.2443m  775.2889u 
    2.10000p    1.2553m  782.3082u 
    2.11000p    1.2663m  789.3276u 
    2.12000p    1.2772m  796.3469u 
    2.13000p    1.2882m  803.3663u 
    2.14000p    1.2991m  810.3857u 
    2.15000p    1.3101m  817.4050u 
    2.16000p    1.3211m  824.4244u 
    2.17000p    1.3320m  831.4437u 
    2.18000p    1.3430m  838.4631u 
    2.19000p    1.3539m  845.4824u 
    2.20000p    1.3649m  852.5018u 
    2.21000p    1.3759m  859.5211u 
    2.22000p    1.3868m  866.5405u 
    2.23000p    1.3978m  873.5598u 
    2.24000p    1.4087m  880.5792u 
    2.25000p    1.4197m  887.5986u 
    2.26000p    1.4307m  894.6179u 
    2.27000p    1.4416m  901.6373u 
    2.28000p    1.4526m  908.6566u 
    2.29000p    1.4635m  915.6760u 
    2.30000p    1.4745m  922.6953u 
    2.31000p    1.4855m  929.7147u 
    2.32000p    1.4964m  936.7340u 
    2.33000p    1.5074m  943.7534u 
    2.34000p    1.5183m  950.7727u 
    2.35000p    1.5293m  957.7921u 
    2.36000p    1.5403m  964.8115u 
    2.37000p    1.5512m  971.8308u 
    2.38000p    1.5622m  978.8502u 
    2.39000p    1.5731m  985.8695u 
    2.40000p    1.5841m  992.8889u 
    2.41000p    1.5942m  999.5249u 
    2.42000p    1.6033m    1.0057m 
    2.43000p    1.6124m    1.0118m 
    2.44000p    1.6214m    1.0179m 
    2.45000p    1.6305m    1.0241m 
    2.46000p    1.6396m    1.0302m 
    2.47000p    1.6486m    1.0363m 
    2.48000p    1.6577m    1.0425m 
    2.49000p    1.6668m    1.0486m 
    2.50000p    1.6759m    1.0547m 
    2.51000p    1.6849m    1.0609m 
    2.52000p    1.6940m    1.0670m 
    2.53000p    1.7031m    1.0731m 
    2.54000p    1.7121m    1.0793m 
    2.55000p    1.7212m    1.0854m 
    2.56000p    1.7303m    1.0915m 
    2.57000p    1.7393m    1.0977m 
    2.58000p    1.7484m    1.1038m 
    2.59000p    1.7575m    1.1099m 
    2.60000p    1.7665m    1.1161m 
    2.61000p    1.7756m    1.1222m 
    2.62000p    1.7847m    1.1283m 
    2.63000p    1.7938m    1.1345m 
    2.64000p    1.8028m    1.1406m 
    2.65000p    1.8119m    1.1467m 
    2.66000p    1.8210m    1.1529m 
    2.67000p    1.8300m    1.1590m 
    2.68000p    1.8391m    1.1651m 
    2.69000p    1.8482m    1.1713m 
    2.70000p    1.8572m    1.1774m 
    2.71000p    1.8663m    1.1835m 
    2.72000p    1.8754m    1.1897m 
    2.73000p    1.8844m    1.1958m 
    2.74000p    1.8935m    1.2019m 
    2.75000p    1.9026m    1.2081m 
    2.76000p    1.9116m    1.2142m 
    2.77000p    1.9207m    1.2203m 
    2.78000p    1.9298m    1.2265m 
    2.79000p    1.9389m    1.2326m 
    2.80000p    1.9479m    1.2387m 
    2.81000p    1.9570m    1.2449m 
    2.82000p    1.9661m    1.2510m 
    2.83000p    1.9751m    1.2571m 
    2.84000p    1.9842m    1.2633m 
    2.85000p    1.9933m    1.2694m 
    2.86000p    2.0023m    1.2755m 
    2.87000p    2.0114m    1.2816m 
    2.88000p    2.0205m    1.2878m 
    2.89000p    2.0295m    1.2939m 
    2.90000p    2.0386m    1.3000m 
    2.91000p    2.0477m    1.3062m 
    2.92000p    2.0568m    1.3123m 
    2.93000p    2.0658m    1.3184m 
    2.94000p    2.0749m    1.3246m 
    2.95000p    2.0840m    1.3307m 
    2.96000p    2.0930m    1.3368m 
    2.97000p    2.1021m    1.3430m 
    2.98000p    2.1112m    1.3491m 
    2.99000p    2.1202m    1.3552m 
    3.00000p    2.1293m    1.3614m 
    3.01000p    2.1384m    1.3675m 
    3.02000p    2.1474m    1.3736m 
    3.03000p    2.1565m    1.3798m 
    3.04000p    2.1656m    1.3859m 
    3.05000p    2.1747m    1.3920m 
    3.06000p    2.1837m    1.3982m 
    3.07000p    2.1928m    1.4043m 
    3.08000p    2.2019m    1.4104m 
    3.09000p    2.2109m    1.4166m 
    3.10000p    2.2200m    1.4227m 
    3.11000p    2.2291m    1.4288m 
    3.12000p    2.2381m    1.4350m 
    3.13000p    2.2472m    1.4411m 
    3.14000p    2.2563m    1.4472m 
    3.15000p    2.2653m    1.4534m 
    3.16000p    2.2744m    1.4595m 
    3.17000p    2.2835m    1.4656m 
    3.18000p    2.2926m    1.4718m 
    3.19000p    2.3016m    1.4779m 
    3.20000p    2.3107m    1.4840m 
    3.21000p    2.3198m    1.4902m 
    3.22000p    2.3288m    1.4963m 
    3.23000p    2.3379m    1.5024m 
    3.24000p    2.3470m    1.5086m 
    3.25000p    2.3560m    1.5147m 
    3.26000p    2.3651m    1.5208m 
    3.27000p    2.3742m    1.5270m 
    3.28000p    2.3832m    1.5331m 
    3.29000p    2.3923m    1.5392m 
    3.30000p    2.4014m    1.5454m 
    3.31000p    2.4105m    1.5515m 
    3.32000p    2.4195m    1.5576m 
    3.33000p    2.4286m    1.5638m 
    3.34000p    2.4377m    1.5699m 
    3.35000p    2.4467m    1.5760m 
    3.36000p    2.4558m    1.5822m 
    3.37000p    2.4649m    1.5883m 
    3.38000p    2.4739m    1.5944m 
    3.39000p    2.4830m    1.6006m 
    3.40000p    2.4921m    1.6067m 
    3.41000p    2.5011m    1.6128m 
    3.42000p    2.5102m    1.6190m 
    3.43000p    2.5193m    1.6251m 
    3.44000p    2.5284m    1.6312m 
    3.45000p    2.5374m    1.6374m 
    3.46000p    2.5465m    1.6435m 
    3.47000p    2.5556m    1.6496m 
    3.48000p    2.5646m    1.6558m 
    3.49000p    2.5737m    1.6619m 
    3.50000p    2.5828m    1.6680m 
    3.51000p    2.5918m    1.6742m 
    3.52000p    2.6009m    1.6803m 
    3.53000p    2.6100m    1.6864m 
    3.54000p    2.6190m    1.6926m 
    3.55000p    2.6281m    1.6987m 
    3.56000p    2.6372m    1.7048m 
    3.57000p    2.6463m    1.7110m 
    3.58000p    2.6553m    1.7171m 
    3.59000p    2.6644m    1.7232m 
    3.60000p    2.6735m    1.7294m 
    3.61000p    2.6825m    1.7355m 
    3.62000p    2.6916m    1.7416m 
    3.63000p    2.7007m    1.7478m 
    3.64000p    2.7097m    1.7539m 
    3.65000p    2.7170m    1.7588m 
    3.66000p    2.7229m    1.7628m 
    3.67000p    2.7288m    1.7668m 
    3.68000p    2.7347m    1.7708m 
    3.69000p    2.7406m    1.7748m 
    3.70000p    2.7465m    1.7787m 
    3.71000p    2.7524m    1.7827m 
    3.72000p    2.7583m    1.7867m 
    3.73000p    2.7643m    1.7907m 
    3.74000p    2.7702m    1.7947m 
    3.75000p    2.7761m    1.7987m 
    3.76000p    2.7820m    1.8026m 
    3.77000p    2.7879m    1.8066m 
    3.78000p    2.7938m    1.8106m 
    3.79000p    2.7997m    1.8146m 
    3.80000p    2.8056m    1.8186m 
    3.81000p    2.8115m    1.8226m 
    3.82000p    2.8174m    1.8266m 
    3.83000p    2.8233m    1.8305m 
    3.84000p    2.8292m    1.8345m 
    3.85000p    2.8351m    1.8385m 
    3.86000p    2.8410m    1.8425m 
    3.87000p    2.8469m    1.8465m 
    3.88000p    2.8529m    1.8505m 
    3.89000p    2.8588m    1.8544m 
    3.90000p    2.8647m    1.8584m 
    3.91000p    2.8706m    1.8624m 
    3.92000p    2.8765m    1.8664m 
    3.93000p    2.8824m    1.8704m 
    3.94000p    2.8883m    1.8744m 
    3.95000p    2.8942m    1.8784m 
    3.96000p    2.9001m    1.8823m 
    3.97000p    2.9060m    1.8863m 
    3.98000p    2.9119m    1.8903m 
    3.99000p    2.9178m    1.8943m 
    4.00000p    2.9237m    1.8983m 
    4.01000p    2.9296m    1.9023m 
    4.02000p    2.9355m    1.9062m 
    4.03000p    2.9414m    1.9102m 
    4.04000p    2.9474m    1.9142m 
    4.05000p    2.9533m    1.9182m 
    4.06000p    2.9592m    1.9222m 
    4.07000p    2.9651m    1.9262m 
    4.08000p    2.9710m    1.9302m 
    4.09000p    2.9769m    1.9341m 
    4.10000p    2.9828m    1.9381m 
    4.11000p    2.9887m    1.9421m 
    4.12000p    2.9946m    1.9461m 
    4.13000p    3.0005m    1.9501m 
    4.14000p    3.0064m    1.9541m 
    4.15000p    3.0123m    1.9580m 
    4.16000p    3.0182m    1.9620m 
    4.17000p    3.0241m    1.9660m 
    4.18000p    3.0300m    1.9700m 
    4.19000p    3.0359m    1.9740m 
    4.20000p    3.0419m    1.9780m 
    4.21000p    3.0478m    1.9820m 
    4.22000p    3.0537m    1.9859m 
    4.23000p    3.0596m    1.9899m 
    4.24000p    3.0655m    1.9939m 
    4.25000p    3.0714m    1.9979m 
    4.26000p    3.0773m    2.0019m 
    4.27000p    3.0832m    2.0059m 
    4.28000p    3.0891m    2.0098m 
    4.29000p    3.0950m    2.0138m 
    4.30000p    3.1009m    2.0178m 
    4.31000p    3.1068m    2.0218m 
    4.32000p    3.1127m    2.0258m 
    4.33000p    3.1186m    2.0298m 
    4.34000p    3.1245m    2.0338m 
    4.35000p    3.1305m    2.0377m 
    4.36000p    3.1364m    2.0417m 
    4.37000p    3.1423m    2.0457m 
    4.38000p    3.1482m    2.0497m 
    4.39000p    3.1541m    2.0537m 
    4.40000p    3.1600m    2.0577m 
    4.41000p    3.1659m    2.0617m 
    4.42000p    3.1718m    2.0656m 
    4.43000p    3.1777m    2.0696m 
    4.44000p    3.1836m    2.0736m 
    4.45000p    3.1895m    2.0776m 
    4.46000p    3.1954m    2.0816m 
    4.47000p    3.2013m    2.0856m 
    4.48000p    3.2072m    2.0895m 
    4.49000p    3.2131m    2.0935m 
    4.50000p    3.2190m    2.0975m 
    4.51000p    3.2250m    2.1015m 
    4.52000p    3.2309m    2.1055m 
    4.53000p    3.2368m    2.1095m 
    4.54000p    3.2427m    2.1135m 
    4.55000p    3.2486m    2.1174m 
    4.56000p    3.2545m    2.1214m 
    4.57000p    3.2604m    2.1254m 
    4.58000p    3.2663m    2.1294m 
    4.59000p    3.2722m    2.1334m 
    4.60000p    3.2781m    2.1374m 
    4.61000p    3.2840m    2.1413m 
    4.62000p    3.2899m    2.1453m 
    4.63000p    3.2958m    2.1493m 
    4.64000p    3.3017m    2.1533m 
    4.65000p    3.3076m    2.1573m 
    4.66000p    3.3136m    2.1613m 
    4.67000p    3.3195m    2.1653m 
    4.68000p    3.3254m    2.1692m 
    4.69000p    3.3313m    2.1732m 
    4.70000p    3.3372m    2.1772m 
    4.71000p    3.3431m    2.1812m 
    4.72000p    3.3490m    2.1852m 
    4.73000p    3.3549m    2.1892m 
    4.74000p    3.3608m    2.1931m 
    4.75000p    3.3667m    2.1971m 
    4.76000p    3.3726m    2.2011m 
    4.77000p    3.3785m    2.2051m 
    4.78000p    3.3844m    2.2091m 
    4.79000p    3.3903m    2.2131m 
    4.80000p    3.3962m    2.2171m 
    4.81000p    3.4021m    2.2210m 
    4.82000p    3.4081m    2.2250m 
    4.83000p    3.4140m    2.2290m 
    4.84000p    3.4199m    2.2330m 
    4.85000p    3.4258m    2.2370m 
    4.86000p    3.4317m    2.2410m 
    4.87000p    3.4376m    2.2449m 
    4.88000p    3.4435m    2.2489m 
    4.89000p    3.4494m    2.2529m 
    4.90000p    3.4553m    2.2569m 
    4.91000p    3.4612m    2.2609m 
    4.92000p    3.4671m    2.2649m 
    4.93000p    3.4730m    2.2689m 
    4.94000p    3.4789m    2.2728m 
    4.95000p    3.4848m    2.2768m 
    4.96000p    3.4907m    2.2808m 
    4.97000p    3.4966m    2.2848m 
    4.98000p    3.5026m    2.2888m 
    4.99000p    3.5085m    2.2928m 
    5.00000p    3.5144m    2.2967m 
    5.01000p    3.5203m    2.3007m 
    5.02000p    3.5262m    2.3047m 
    5.03000p    3.5321m    2.3087m 
    5.04000p    3.5380m    2.3127m 
    5.05000p    3.5439m    2.3167m 
    5.06000p    3.5498m    2.3207m 
    5.07000p    3.5557m    2.3246m 
    5.08000p    3.5616m    2.3286m 
    5.09000p    3.5675m    2.3326m 
    5.10000p    3.5734m    2.3366m 
    5.11000p    3.5793m    2.3406m 
    5.12000p    3.5852m    2.3446m 
    5.13000p    3.5912m    2.3485m 
    5.14000p    3.5971m    2.3525m 
    5.15000p    3.6030m    2.3565m 
    5.16000p    3.6089m    2.3605m 
    5.17000p    3.6148m    2.3645m 
    5.18000p    3.6207m    2.3685m 
    5.19000p    3.6266m    2.3725m 
    5.20000p    3.6325m    2.3764m 
    5.21000p    3.6384m    2.3804m 
    5.22000p    3.6443m    2.3844m 
    5.23000p    3.6502m    2.3884m 
    5.24000p    3.6561m    2.3924m 
    5.25000p    3.6620m    2.3964m 
    5.26000p    3.6679m    2.4004m 
    5.27000p    3.6738m    2.4043m 
    5.28000p    3.6797m    2.4083m 
    5.29000p    3.6857m    2.4123m 
    5.30000p    3.6916m    2.4163m 
    5.31000p    3.6975m    2.4203m 
    5.32000p    3.7034m    2.4243m 
    5.33000p    3.7093m    2.4282m 
    5.34000p    3.7152m    2.4322m 
    5.35000p    3.7211m    2.4362m 
    5.36000p    3.7270m    2.4402m 
    5.37000p    3.7329m    2.4442m 
    5.38000p    3.7388m    2.4482m 
    5.39000p    3.7447m    2.4522m 
    5.40000p    3.7506m    2.4561m 
    5.41000p    3.7565m    2.4601m 
    5.42000p    3.7624m    2.4641m 
    5.43000p    3.7683m    2.4681m 
    5.44000p    3.7743m    2.4721m 
    5.45000p    3.7802m    2.4761m 
    5.46000p    3.7861m    2.4800m 
    5.47000p    3.7920m    2.4840m 
    5.48000p    3.7979m    2.4880m 
    5.49000p    3.8038m    2.4920m 
    5.50000p    3.8097m    2.4960m 
    5.51000p    3.8156m    2.5000m 
    5.52000p    3.8215m    2.5040m 
    5.53000p    3.8274m    2.5079m 
    5.54000p    3.8333m    2.5119m 
    5.55000p    3.8392m    2.5159m 
    5.56000p    3.8451m    2.5199m 
    5.57000p    3.8510m    2.5239m 
    5.58000p    3.8569m    2.5279m 
    5.59000p    3.8628m    2.5318m 
    5.60000p    3.8688m    2.5358m 
    5.61000p    3.8747m    2.5398m 
    5.62000p    3.8806m    2.5438m 
    5.63000p    3.8865m    2.5478m 
    5.64000p    3.8924m    2.5518m 
    5.65000p    3.8983m    2.5558m 
    5.66000p    3.9042m    2.5597m 
    5.67000p    3.9101m    2.5637m 
    5.68000p    3.9160m    2.5677m 
    5.69000p    3.9219m    2.5717m 
    5.70000p    3.9278m    2.5757m 
    5.71000p    3.9337m    2.5797m 
    5.72000p    3.9396m    2.5836m 
    5.73000p    3.9455m    2.5876m 
    5.74000p    3.9514m    2.5916m 
    5.75000p    3.9573m    2.5956m 
    5.76000p    3.9633m    2.5996m 
    5.77000p    3.9692m    2.6036m 
    5.78000p    3.9751m    2.6076m 
    5.79000p    3.9810m    2.6115m 
    5.80000p    3.9869m    2.6155m 
    5.81000p    3.9928m    2.6195m 
    5.82000p    3.9987m    2.6235m 
    5.83000p    4.0046m    2.6275m 
    5.84000p    4.0105m    2.6315m 
    5.85000p    4.0164m    2.6354m 
    5.86000p    4.0223m    2.6394m 
    5.87000p    4.0282m    2.6434m 
    5.88000p    4.0341m    2.6474m 
    5.89000p    4.0400m    2.6514m 
    5.90000p    4.0459m    2.6554m 
    5.91000p    4.0519m    2.6594m 
    5.92000p    4.0578m    2.6633m 
    5.93000p    4.0637m    2.6673m 
    5.94000p    4.0696m    2.6713m 
    5.95000p    4.0755m    2.6753m 
    5.96000p    4.0814m    2.6793m 
    5.97000p    4.0873m    2.6833m 
    5.98000p    4.0932m    2.6872m 
    5.99000p    4.0991m    2.6912m 
    6.00000p    4.1050m    2.6952m 
    6.01000p    4.1109m    2.6992m 
    6.02000p    4.1168m    2.7032m 
    6.03000p    4.1227m    2.7072m 
    6.04000p    4.1286m    2.7112m 
    6.05000p    4.1345m    2.7151m 
    6.06000p    4.1404m    2.7191m 
    6.07000p    4.1464m    2.7231m 
    6.08000p    4.1523m    2.7271m 
    6.09000p    4.1582m    2.7311m 
    6.10000p    4.1641m    2.7351m 
    6.11000p    4.1700m    2.7391m 
    6.12000p    4.1759m    2.7430m 
    6.13000p    4.1818m    2.7470m 
    6.14000p    4.1877m    2.7510m 
    6.15000p    4.1936m    2.7550m 
    6.16000p    4.1995m    2.7590m 
    6.17000p    4.2054m    2.7630m 
    6.18000p    4.2113m    2.7669m 
    6.19000p    4.2172m    2.7709m 
    6.20000p    4.2231m    2.7749m 
    6.21000p    4.2290m    2.7789m 
    6.22000p    4.2350m    2.7829m 
    6.23000p    4.2409m    2.7869m 
    6.24000p    4.2468m    2.7909m 
    6.25000p    4.2527m    2.7948m 
    6.26000p    4.2586m    2.7988m 
    6.27000p    4.2645m    2.8028m 
    6.28000p    4.2704m    2.8068m 
    6.29000p    4.2763m    2.8108m 
    6.30000p    4.2822m    2.8148m 
    6.31000p    4.2881m    2.8187m 
    6.32000p    4.2940m    2.8227m 
    6.33000p    4.2999m    2.8267m 
    6.34000p    4.3058m    2.8307m 
    6.35000p    4.3117m    2.8347m 
    6.36000p    4.3176m    2.8387m 
    6.37000p    4.3235m    2.8427m 
    6.38000p    4.3295m    2.8466m 
    6.39000p    4.3354m    2.8506m 
    6.40000p    4.3413m    2.8546m 
    6.41000p    4.3472m    2.8586m 
    6.42000p    4.3531m    2.8626m 
    6.43000p    4.3590m    2.8666m 
    6.44000p    4.3649m    2.8705m 
    6.45000p    4.3708m    2.8745m 
    6.46000p    4.3767m    2.8785m 
    6.47000p    4.3826m    2.8825m 
    6.48000p    4.3885m    2.8865m 
    6.49000p    4.3944m    2.8905m 
    6.50000p    4.4003m    2.8945m 
    6.51000p    4.4062m    2.8984m 
    6.52000p    4.4121m    2.9024m 
    6.53000p    4.4180m    2.9064m 
    6.54000p    4.4240m    2.9104m 
    6.55000p    4.4299m    2.9144m 
    6.56000p    4.4358m    2.9184m 
    6.57000p    4.4417m    2.9223m 
    6.58000p    4.4476m    2.9263m 
    6.59000p    4.4535m    2.9303m 
    6.60000p    4.4594m    2.9343m 
    6.61000p    4.4653m    2.9383m 
    6.62000p    4.4712m    2.9423m 
    6.63000p    4.4771m    2.9463m 
    6.64000p    4.4830m    2.9502m 
    6.65000p    4.4889m    2.9542m 
    6.66000p    4.4948m    2.9582m 
    6.67000p    4.5007m    2.9622m 
    6.68000p    4.5066m    2.9662m 
    6.69000p    4.5126m    2.9702m 
    6.70000p    4.5185m    2.9741m 
    6.71000p    4.5244m    2.9781m 
    6.72000p    4.5303m    2.9821m 
    6.73000p    4.5362m    2.9861m 
    6.74000p    4.5421m    2.9901m 
    6.75000p    4.5480m    2.9941m 
    6.76000p    4.5539m    2.9981m 
    6.77000p    4.5598m    3.0020m 
    6.78000p    4.5657m    3.0060m 
    6.79000p    4.5716m    3.0100m 
    6.80000p    4.5775m    3.0140m 
    6.81000p    4.5834m    3.0180m 
    6.82000p    4.5893m    3.0220m 
    6.83000p    4.5952m    3.0260m 
    6.84000p    4.6011m    3.0299m 
    6.85000p    4.6071m    3.0339m 
    6.86000p    4.6130m    3.0379m 
    6.87000p    4.6189m    3.0419m 
    6.88000p    4.6248m    3.0459m 
    6.89000p    4.6307m    3.0499m 
    6.90000p    4.6366m    3.0538m 
    6.91000p    4.6425m    3.0578m 
    6.92000p    4.6484m    3.0618m 
    6.93000p    4.6543m    3.0658m 
    6.94000p    4.6602m    3.0698m 
    6.95000p    4.6661m    3.0738m 
    6.96000p    4.6720m    3.0778m 
    6.97000p    4.6779m    3.0817m 
    6.98000p    4.6838m    3.0857m 
    6.99000p    4.6897m    3.0897m 
    7.00000p    4.6956m    3.0937m 
    7.01000p    4.7016m    3.0977m 
    7.02000p    4.7075m    3.1017m 
    7.03000p    4.7134m    3.1056m 
    7.04000p    4.7193m    3.1096m 
    7.05000p    4.7252m    3.1136m 
    7.06000p    4.7311m    3.1176m 
    7.07000p    4.7370m    3.1216m 
    7.08000p    4.7429m    3.1256m 
    7.09000p    4.7488m    3.1296m 
    7.10000p    4.7547m    3.1335m 
    7.11000p    4.7606m    3.1375m 
    7.12000p    4.7665m    3.1415m 
    7.13000p    4.7724m    3.1455m 
    7.14000p    4.7783m    3.1495m 
    7.15000p    4.7842m    3.1535m 
    7.16000p    4.7902m    3.1574m 
    7.17000p    4.7961m    3.1614m 
    7.18000p    4.8020m    3.1654m 
    7.19000p    4.8079m    3.1694m 
    7.20000p    4.8138m    3.1734m 
    7.21000p    4.8197m    3.1774m 
    7.22000p    4.8256m    3.1814m 
    7.23000p    4.8315m    3.1853m 
    7.24000p    4.8374m    3.1893m 
    7.25000p    4.8433m    3.1933m 
    7.26000p    4.8492m    3.1973m 
    7.27000p    4.8551m    3.2013m 
    7.28000p    4.8610m    3.2053m 
    7.29000p    4.8669m    3.2092m 
    7.30000p    4.8728m    3.2132m 
    7.31000p    4.8787m    3.2172m 
    7.32000p    4.8847m    3.2212m 
    7.33000p    4.8906m    3.2252m 
    7.34000p    4.8965m    3.2292m 
    7.35000p    4.9024m    3.2332m 
    7.36000p    4.9083m    3.2371m 
    7.37000p    4.9142m    3.2411m 
    7.38000p    4.9201m    3.2451m 
    7.39000p    4.9260m    3.2491m 
    7.40000p    4.9319m    3.2531m 
    7.41000p    4.9378m    3.2571m 
    7.42000p    4.9437m    3.2610m 
    7.43000p    4.9496m    3.2650m 
    7.44000p    4.9555m    3.2690m 
    7.45000p    4.9614m    3.2730m 
    7.46000p    4.9673m    3.2770m 
    7.47000p    4.9733m    3.2810m 
    7.48000p    4.9792m    3.2850m 
    7.49000p    4.9851m    3.2889m 
    7.50000p    4.9910m    3.2929m 
    7.51000p    4.9969m    3.2969m 
    7.52000p    5.0028m    3.3009m 
    7.53000p    5.0087m    3.3049m 
    7.54000p    5.0146m    3.3089m 
    7.55000p    5.0205m    3.3128m 
    7.56000p    5.0264m    3.3168m 
    7.57000p    5.0323m    3.3208m 
    7.58000p    5.0382m    3.3248m 
    7.59000p    5.0441m    3.3288m 
    7.60000p    5.0500m    3.3328m 
    7.61000p    5.0554m    3.3363m 
    7.62000p    5.0587m    3.3381m 
    7.63000p    5.0620m    3.3398m 
    7.64000p    5.0652m    3.3416m 
    7.65000p    5.0685m    3.3434m 
    7.66000p    5.0718m    3.3451m 
    7.67000p    5.0751m    3.3469m 
    7.68000p    5.0784m    3.3487m 
    7.69000p    5.0816m    3.3504m 
    7.70000p    5.0849m    3.3522m 
    7.71000p    5.0882m    3.3540m 
    7.72000p    5.0915m    3.3557m 
    7.73000p    5.0948m    3.3575m 
    7.74000p    5.0980m    3.3593m 
    7.75000p    5.1013m    3.3610m 
    7.76000p    5.1046m    3.3628m 
    7.77000p    5.1079m    3.3646m 
    7.78000p    5.1112m    3.3663m 
    7.79000p    5.1144m    3.3681m 
    7.80000p    5.1177m    3.3699m 
    7.81000p    5.1210m    3.3716m 
    7.82000p    5.1243m    3.3734m 
    7.83000p    5.1276m    3.3752m 
    7.84000p    5.1308m    3.3769m 
    7.85000p    5.1341m    3.3787m 
    7.86000p    5.1374m    3.3805m 
    7.87000p    5.1407m    3.3822m 
    7.88000p    5.1440m    3.3840m 
    7.89000p    5.1472m    3.3858m 
    7.90000p    5.1505m    3.3875m 
    7.91000p    5.1538m    3.3893m 
    7.92000p    5.1571m    3.3910m 
    7.93000p    5.1604m    3.3928m 
    7.94000p    5.1636m    3.3946m 
    7.95000p    5.1669m    3.3963m 
    7.96000p    5.1702m    3.3981m 
    7.97000p    5.1735m    3.3999m 
    7.98000p    5.1768m    3.4016m 
    7.99000p    5.1800m    3.4034m 
    8.00000p    5.1833m    3.4052m 
    8.01000p    5.1866m    3.4069m 
    8.02000p    5.1899m    3.4087m 
    8.03000p    5.1932m    3.4105m 
    8.04000p    5.1964m    3.4122m 
    8.05000p    5.1997m    3.4140m 
    8.06000p    5.2030m    3.4158m 
    8.07000p    5.2063m    3.4175m 
    8.08000p    5.2096m    3.4193m 
    8.09000p    5.2128m    3.4211m 
    8.10000p    5.2161m    3.4228m 
    8.11000p    5.2194m    3.4246m 
    8.12000p    5.2227m    3.4264m 
    8.13000p    5.2260m    3.4281m 
    8.14000p    5.2292m    3.4299m 
    8.15000p    5.2325m    3.4317m 
    8.16000p    5.2358m    3.4334m 
    8.17000p    5.2391m    3.4352m 
    8.18000p    5.2424m    3.4370m 
    8.19000p    5.2456m    3.4387m 
    8.20000p    5.2489m    3.4405m 
    8.21000p    5.2522m    3.4423m 
    8.22000p    5.2555m    3.4440m 
    8.23000p    5.2588m    3.4458m 
    8.24000p    5.2620m    3.4476m 
    8.25000p    5.2653m    3.4493m 
    8.26000p    5.2686m    3.4511m 
    8.27000p    5.2719m    3.4529m 
    8.28000p    5.2752m    3.4546m 
    8.29000p    5.2784m    3.4564m 
    8.30000p    5.2817m    3.4582m 
    8.31000p    5.2850m    3.4599m 
    8.32000p    5.2883m    3.4617m 
    8.33000p    5.2916m    3.4635m 
    8.34000p    5.2948m    3.4652m 
    8.35000p    5.2981m    3.4670m 
    8.36000p    5.3014m    3.4688m 
    8.37000p    5.3047m    3.4705m 
    8.38000p    5.3080m    3.4723m 
    8.39000p    5.3112m    3.4740m 
    8.40000p    5.3145m    3.4758m 
    8.41000p    5.3178m    3.4776m 
    8.42000p    5.3211m    3.4793m 
    8.43000p    5.3244m    3.4811m 
    8.44000p    5.3276m    3.4829m 
    8.45000p    5.3309m    3.4846m 
    8.46000p    5.3342m    3.4864m 
    8.47000p    5.3375m    3.4882m 
    8.48000p    5.3408m    3.4899m 
    8.49000p    5.3440m    3.4917m 
    8.50000p    5.3473m    3.4935m 
    8.51000p    5.3506m    3.4952m 
    8.52000p    5.3539m    3.4970m 
    8.53000p    5.3572m    3.4988m 
    8.54000p    5.3604m    3.5005m 
    8.55000p    5.3637m    3.5023m 
    8.56000p    5.3670m    3.5041m 
    8.57000p    5.3703m    3.5058m 
    8.58000p    5.3736m    3.5076m 
    8.59000p    5.3768m    3.5094m 
    8.60000p    5.3801m    3.5111m 
    8.61000p    5.3834m    3.5129m 
    8.62000p    5.3867m    3.5147m 
    8.63000p    5.3900m    3.5164m 
    8.64000p    5.3932m    3.5182m 
    8.65000p    5.3965m    3.5200m 
    8.66000p    5.3998m    3.5217m 
    8.67000p    5.4031m    3.5235m 
    8.68000p    5.4064m    3.5253m 
    8.69000p    5.4096m    3.5270m 
    8.70000p    5.4129m    3.5288m 
    8.71000p    5.4162m    3.5306m 
    8.72000p    5.4195m    3.5323m 
    8.73000p    5.4228m    3.5341m 
    8.74000p    5.4260m    3.5359m 
    8.75000p    5.4293m    3.5376m 
    8.76000p    5.4326m    3.5394m 
    8.77000p    5.4359m    3.5412m 
    8.78000p    5.4392m    3.5429m 
    8.79000p    5.4424m    3.5447m 
    8.80000p    5.4457m    3.5465m 
    8.81000p    5.4490m    3.5482m 
    8.82000p    5.4523m    3.5500m 
    8.83000p    5.4556m    3.5518m 
    8.84000p    5.4588m    3.5535m 
    8.85000p    5.4621m    3.5553m 
    8.86000p    5.4654m    3.5570m 
    8.87000p    5.4687m    3.5588m 
    8.88000p    5.4720m    3.5606m 
    8.89000p    5.4752m    3.5623m 
    8.90000p    5.4785m    3.5641m 
    8.91000p    5.4818m    3.5659m 
    8.92000p    5.4851m    3.5676m 
    8.93000p    5.4884m    3.5694m 
    8.94000p    5.4916m    3.5712m 
    8.95000p    5.4949m    3.5729m 
    8.96000p    5.4982m    3.5747m 
    8.97000p    5.5015m    3.5765m 
    8.98000p    5.5048m    3.5782m 
    8.99000p    5.5080m    3.5800m 
    9.00000p    5.5113m    3.5818m 
    9.01000p    5.5146m    3.5835m 
    9.02000p    5.5179m    3.5853m 
    9.03000p    5.5212m    3.5871m 
    9.04000p    5.5244m    3.5888m 
    9.05000p    5.5277m    3.5906m 
    9.06000p    5.5310m    3.5924m 
    9.07000p    5.5343m    3.5941m 
    9.08000p    5.5376m    3.5959m 
    9.09000p    5.5408m    3.5977m 
    9.10000p    5.5441m    3.5994m 
    9.11000p    5.5474m    3.6012m 
    9.12000p    5.5507m    3.6030m 
    9.13000p    5.5540m    3.6047m 
    9.14000p    5.5572m    3.6065m 
    9.15000p    5.5605m    3.6083m 
    9.16000p    5.5638m    3.6100m 
    9.17000p    5.5671m    3.6118m 
    9.18000p    5.5704m    3.6136m 
    9.19000p    5.5736m    3.6153m 
    9.20000p    5.5769m    3.6171m 
    9.21000p    5.5802m    3.6189m 
    9.22000p    5.5835m    3.6206m 
    9.23000p    5.5868m    3.6224m 
    9.24000p    5.5900m    3.6242m 
    9.25000p    5.5933m    3.6259m 
    9.26000p    5.5966m    3.6277m 
    9.27000p    5.5999m    3.6295m 
    9.28000p    5.6032m    3.6312m 
    9.29000p    5.6064m    3.6330m 
    9.30000p    5.6097m    3.6348m 
    9.31000p    5.6130m    3.6365m 
    9.32000p    5.6163m    3.6383m 
    9.33000p    5.6196m    3.6401m 
    9.34000p    5.6228m    3.6418m 
    9.35000p    5.6261m    3.6436m 
    9.36000p    5.6294m    3.6453m 
    9.37000p    5.6327m    3.6471m 
    9.38000p    5.6360m    3.6489m 
    9.39000p    5.6392m    3.6506m 
    9.40000p    5.6425m    3.6524m 
    9.41000p    5.6458m    3.6542m 
    9.42000p    5.6491m    3.6559m 
    9.43000p    5.6523m    3.6577m 
    9.44000p    5.6556m    3.6595m 
    9.45000p    5.6589m    3.6612m 
    9.46000p    5.6622m    3.6630m 
    9.47000p    5.6655m    3.6648m 
    9.48000p    5.6687m    3.6665m 
    9.49000p    5.6720m    3.6683m 
    9.50000p    5.6753m    3.6701m 
    9.51000p    5.6786m    3.6718m 
    9.52000p    5.6819m    3.6736m 
    9.53000p    5.6851m    3.6754m 
    9.54000p    5.6884m    3.6771m 
    9.55000p    5.6917m    3.6789m 
    9.56000p    5.6950m    3.6807m 
    9.57000p    5.6983m    3.6824m 
    9.58000p    5.7015m    3.6842m 
    9.59000p    5.7048m    3.6860m 
    9.60000p    5.7081m    3.6877m 
    9.61000p    5.7114m    3.6895m 
    9.62000p    5.7147m    3.6913m 
    9.63000p    5.7179m    3.6930m 
    9.64000p    5.7212m    3.6948m 
    9.65000p    5.7245m    3.6966m 
    9.66000p    5.7278m    3.6983m 
    9.67000p    5.7311m    3.7001m 
    9.68000p    5.7343m    3.7019m 
    9.69000p    5.7376m    3.7036m 
    9.70000p    5.7409m    3.7054m 
    9.71000p    5.7442m    3.7072m 
    9.72000p    5.7475m    3.7089m 
    9.73000p    5.7507m    3.7107m 
    9.74000p    5.7540m    3.7125m 
    9.75000p    5.7573m    3.7142m 
    9.76000p    5.7606m    3.7160m 
    9.77000p    5.7639m    3.7178m 
    9.78000p    5.7671m    3.7195m 
    9.79000p    5.7704m    3.7213m 
    9.80000p    5.7737m    3.7231m 
    9.81000p    5.7770m    3.7248m 
    9.82000p    5.7803m    3.7266m 
    9.83000p    5.7835m    3.7283m 
    9.84000p    5.7868m    3.7301m 
    9.85000p    5.7901m    3.7319m 
    9.86000p    5.7934m    3.7336m 
    9.87000p    5.7967m    3.7354m 
    9.88000p    5.7999m    3.7372m 
    9.89000p    5.8032m    3.7389m 
    9.90000p    5.8065m    3.7407m 
    9.91000p    5.8098m    3.7425m 
    9.92000p    5.8131m    3.7442m 
    9.93000p    5.8163m    3.7460m 
    9.94000p    5.8196m    3.7478m 
    9.95000p    5.8229m    3.7495m 
    9.96000p    5.8262m    3.7513m 
    9.97000p    5.8295m    3.7531m 
    9.98000p    5.8327m    3.7548m 
    9.99000p    5.8360m    3.7566m 
   10.00000p    5.8393m    3.7584m 
   10.01000p    5.8426m    3.7601m 
   10.02000p    5.8459m    3.7619m 
   10.03000p    5.8491m    3.7637m 
   10.04000p    5.8524m    3.7654m 
   10.05000p    5.8557m    3.7672m 
   10.06000p    5.8590m    3.7690m 
   10.07000p    5.8623m    3.7707m 
   10.08000p    5.8655m    3.7725m 
   10.09000p    5.8688m    3.7743m 
   10.10000p    5.8721m    3.7760m 
   10.11000p    5.8754m    3.7778m 
   10.12000p    5.8787m    3.7796m 
   10.13000p    5.8819m    3.7813m 
   10.14000p    5.8852m    3.7831m 
   10.15000p    5.8885m    3.7849m 
   10.16000p    5.8918m    3.7866m 
   10.17000p    5.8951m    3.7884m 
   10.18000p    5.8983m    3.7902m 
   10.19000p    5.9016m    3.7919m 
   10.20000p    5.9049m    3.7937m 
   10.21000p    5.9082m    3.7955m 
   10.22000p    5.9115m    3.7972m 
   10.23000p    5.9147m    3.7990m 
   10.24000p    5.9180m    3.8008m 
   10.25000p    5.9213m    3.8025m 
   10.26000p    5.9246m    3.8043m 
   10.27000p    5.9279m    3.8061m 
   10.28000p    5.9311m    3.8078m 
   10.29000p    5.9344m    3.8096m 
   10.30000p    5.9377m    3.8113m 
   10.31000p    5.9410m    3.8131m 
   10.32000p    5.9443m    3.8149m 
   10.33000p    5.9475m    3.8166m 
   10.34000p    5.9508m    3.8184m 
   10.35000p    5.9541m    3.8202m 
   10.36000p    5.9574m    3.8219m 
   10.37000p    5.9607m    3.8237m 
   10.38000p    5.9639m    3.8255m 
   10.39000p    5.9672m    3.8272m 
   10.40000p    5.9705m    3.8290m 
   10.41000p    5.9738m    3.8308m 
   10.42000p    5.9771m    3.8325m 
   10.43000p    5.9803m    3.8343m 
   10.44000p    5.9836m    3.8361m 
   10.45000p    5.9869m    3.8378m 
   10.46000p    5.9902m    3.8396m 
   10.47000p    5.9935m    3.8414m 
   10.48000p    5.9967m    3.8431m 
   10.49000p    6.0000m    3.8449m 
   10.50000p    6.0033m    3.8467m 
   10.51000p    6.0066m    3.8484m 
   10.52000p    6.0099m    3.8502m 
   10.53000p    6.0131m    3.8520m 
   10.54000p    6.0164m    3.8537m 
   10.55000p    6.0197m    3.8555m 
   10.56000p    6.0230m    3.8573m 
   10.57000p    6.0263m    3.8590m 
   10.58000p    6.0295m    3.8608m 
   10.59000p    6.0328m    3.8626m 
   10.60000p    6.0361m    3.8643m 
   10.61000p    6.0394m    3.8661m 
   10.62000p    6.0427m    3.8679m 
   10.63000p    6.0459m    3.8696m 
   10.64000p    6.0492m    3.8714m 
   10.65000p    6.0525m    3.8732m 
   10.66000p    6.0558m    3.8749m 
   10.67000p    6.0591m    3.8767m 
   10.68000p    6.0623m    3.8785m 
   10.69000p    6.0656m    3.8802m 
   10.70000p    6.0689m    3.8820m 
   10.71000p    6.0722m    3.8838m 
   10.72000p    6.0755m    3.8855m 
   10.73000p    6.0787m    3.8873m 
   10.74000p    6.0820m    3.8891m 
   10.75000p    6.0853m    3.8908m 
   10.76000p    6.0886m    3.8926m 
   10.77000p    6.0919m    3.8944m 
   10.78000p    6.0951m    3.8961m 
   10.79000p    6.0984m    3.8979m 
   10.80000p    6.1017m    3.8996m 
   10.81000p    6.1050m    3.9014m 
   10.82000p    6.1083m    3.9032m 
   10.83000p    6.1115m    3.9049m 
   10.84000p    6.1148m    3.9067m 
   10.85000p    6.1181m    3.9085m 
   10.86000p    6.1214m    3.9102m 
   10.87000p    6.1247m    3.9120m 
   10.88000p    6.1279m    3.9138m 
   10.89000p    6.1312m    3.9155m 
   10.90000p    6.1345m    3.9173m 
   10.91000p    6.1378m    3.9191m 
   10.92000p    6.1411m    3.9208m 
   10.93000p    6.1443m    3.9226m 
   10.94000p    6.1476m    3.9244m 
   10.95000p    6.1509m    3.9261m 
   10.96000p    6.1542m    3.9279m 
   10.97000p    6.1575m    3.9297m 
   10.98000p    6.1607m    3.9314m 
   10.99000p    6.1640m    3.9332m 
   11.00000p    6.1673m    3.9350m 
   11.01000p    6.1706m    3.9367m 
   11.02000p    6.1739m    3.9385m 
   11.03000p    6.1771m    3.9403m 
   11.04000p    6.1804m    3.9420m 
   11.05000p    6.1837m    3.9438m 
   11.06000p    6.1870m    3.9456m 
   11.07000p    6.1903m    3.9473m 
   11.08000p    6.1935m    3.9491m 
   11.09000p    6.1968m    3.9509m 
   11.10000p    6.2001m    3.9526m 
   11.11000p    6.2034m    3.9544m 
   11.12000p    6.2067m    3.9562m 
   11.13000p    6.2099m    3.9579m 
   11.14000p    6.2132m    3.9597m 
   11.15000p    6.2165m    3.9615m 
   11.16000p    6.2198m    3.9632m 
   11.17000p    6.2231m    3.9650m 
   11.18000p    6.2263m    3.9668m 
   11.19000p    6.2296m    3.9685m 
   11.20000p    6.2329m    3.9703m 
   11.21000p    6.2362m    3.9721m 
   11.22000p    6.2395m    3.9738m 
   11.23000p    6.2427m    3.9756m 
   11.24000p    6.2460m    3.9774m 
   11.25000p    6.2493m    3.9791m 
   11.26000p    6.2526m    3.9809m 
   11.27000p    6.2559m    3.9826m 
   11.28000p    6.2591m    3.9844m 
   11.29000p    6.2624m    3.9862m 
   11.30000p    6.2657m    3.9879m 
   11.31000p    6.2690m    3.9897m 
   11.32000p    6.2723m    3.9915m 
   11.33000p    6.2755m    3.9932m 
   11.34000p    6.2788m    3.9950m 
   11.35000p    6.2821m    3.9968m 
   11.36000p    6.2854m    3.9985m 
   11.37000p    6.2887m    4.0003m 
   11.38000p    6.2919m    4.0021m 
   11.39000p    6.2952m    4.0038m 
   11.40000p    6.2957m    4.0013m 
   11.41000p    6.2958m    3.9981m 
   11.42000p    6.2960m    3.9950m 
   11.43000p    6.2961m    3.9919m 
   11.44000p    6.2963m    3.9888m 
   11.45000p    6.2964m    3.9857m 
   11.46000p    6.2966m    3.9826m 
   11.47000p    6.2967m    3.9795m 
   11.48000p    6.2969m    3.9764m 
   11.49000p    6.2970m    3.9733m 
   11.50000p    6.2972m    3.9701m 
   11.51000p    6.2973m    3.9670m 
   11.52000p    6.2974m    3.9639m 
   11.53000p    6.2976m    3.9608m 
   11.54000p    6.2977m    3.9577m 
   11.55000p    6.2979m    3.9546m 
   11.56000p    6.2980m    3.9515m 
   11.57000p    6.2982m    3.9484m 
   11.58000p    6.2983m    3.9452m 
   11.59000p    6.2985m    3.9421m 
   11.60000p    6.2986m    3.9390m 
   11.61000p    6.2988m    3.9359m 
   11.62000p    6.2989m    3.9328m 
   11.63000p    6.2990m    3.9297m 
   11.64000p    6.2992m    3.9266m 
   11.65000p    6.2993m    3.9235m 
   11.66000p    6.2995m    3.9204m 
   11.67000p    6.2996m    3.9172m 
   11.68000p    6.2998m    3.9141m 
   11.69000p    6.2999m    3.9110m 
   11.70000p    6.3001m    3.9079m 
   11.71000p    6.3002m    3.9048m 
   11.72000p    6.3004m    3.9017m 
   11.73000p    6.3005m    3.8986m 
   11.74000p    6.3006m    3.8955m 
   11.75000p    6.3008m    3.8924m 
   11.76000p    6.3009m    3.8892m 
   11.77000p    6.3011m    3.8861m 
   11.78000p    6.3012m    3.8830m 
   11.79000p    6.3014m    3.8799m 
   11.80000p    6.3015m    3.8768m 
   11.81000p    6.3017m    3.8737m 
   11.82000p    6.3018m    3.8706m 
   11.83000p    6.3020m    3.8675m 
   11.84000p    6.3021m    3.8644m 
   11.85000p    6.3023m    3.8612m 
   11.86000p    6.3024m    3.8581m 
   11.87000p    6.3025m    3.8550m 
   11.88000p    6.3027m    3.8519m 
   11.89000p    6.3028m    3.8488m 
   11.90000p    6.3030m    3.8457m 
   11.91000p    6.3031m    3.8426m 
   11.92000p    6.3033m    3.8395m 
   11.93000p    6.3034m    3.8363m 
   11.94000p    6.3036m    3.8332m 
   11.95000p    6.3037m    3.8301m 
   11.96000p    6.3039m    3.8270m 
   11.97000p    6.3040m    3.8239m 
   11.98000p    6.3041m    3.8208m 
   11.99000p    6.3043m    3.8177m 
   12.00000p    6.3044m    3.8146m 
   12.01000p    6.3046m    3.8115m 
   12.02000p    6.3047m    3.8083m 
   12.03000p    6.3049m    3.8052m 
   12.04000p    6.3050m    3.8021m 
   12.05000p    6.3052m    3.7990m 
   12.06000p    6.3053m    3.7959m 
   12.07000p    6.3055m    3.7928m 
   12.08000p    6.3056m    3.7897m 
   12.09000p    6.3057m    3.7866m 
   12.10000p    6.3059m    3.7835m 
   12.11000p    6.3060m    3.7803m 
   12.12000p    6.3062m    3.7772m 
   12.13000p    6.3063m    3.7741m 
   12.14000p    6.3065m    3.7710m 
   12.15000p    6.3066m    3.7679m 
   12.16000p    6.3068m    3.7648m 
   12.17000p    6.3069m    3.7617m 
   12.18000p    6.3071m    3.7586m 
   12.19000p    6.3072m    3.7555m 
   12.20000p    6.3073m    3.7523m 
   12.21000p    6.3075m    3.7492m 
   12.22000p    6.3076m    3.7461m 
   12.23000p    6.3078m    3.7430m 
   12.24000p    6.3079m    3.7399m 
   12.25000p    6.3081m    3.7368m 
   12.26000p    6.3082m    3.7337m 
   12.27000p    6.3084m    3.7306m 
   12.28000p    6.3085m    3.7275m 
   12.29000p    6.3087m    3.7243m 
   12.30000p    6.3088m    3.7212m 
   12.31000p    6.3089m    3.7181m 
   12.32000p    6.3091m    3.7150m 
   12.33000p    6.3092m    3.7119m 
   12.34000p    6.3094m    3.7088m 
   12.35000p    6.3095m    3.7057m 
   12.36000p    6.3097m    3.7026m 
   12.37000p    6.3098m    3.6994m 
   12.38000p    6.3100m    3.6963m 
   12.39000p    6.3101m    3.6932m 
   12.40000p    6.3103m    3.6901m 
   12.41000p    6.3104m    3.6870m 
   12.42000p    6.3105m    3.6839m 
   12.43000p    6.3107m    3.6808m 
   12.44000p    6.3108m    3.6777m 
   12.45000p    6.3110m    3.6746m 
   12.46000p    6.3111m    3.6714m 
   12.47000p    6.3113m    3.6683m 
   12.48000p    6.3114m    3.6652m 
   12.49000p    6.3116m    3.6621m 
   12.50000p    6.3117m    3.6590m 
   12.51000p    6.3119m    3.6559m 
   12.52000p    6.3120m    3.6528m 
   12.53000p    6.3122m    3.6497m 
   12.54000p    6.3123m    3.6466m 
   12.55000p    6.3124m    3.6434m 
   12.56000p    6.3126m    3.6403m 
   12.57000p    6.3127m    3.6372m 
   12.58000p    6.3129m    3.6341m 
   12.59000p    6.3130m    3.6310m 
   12.60000p    6.3132m    3.6279m 
   12.61000p    6.3133m    3.6248m 
   12.62000p    6.3135m    3.6217m 
   12.63000p    6.3136m    3.6186m 
   12.64000p    6.3138m    3.6154m 
   12.65000p    6.3139m    3.6123m 
   12.66000p    6.3140m    3.6092m 
   12.67000p    6.3142m    3.6061m 
   12.68000p    6.3143m    3.6030m 
   12.69000p    6.3145m    3.5999m 
   12.70000p    6.3146m    3.5968m 
   12.71000p    6.3148m    3.5937m 
   12.72000p    6.3149m    3.5906m 
   12.73000p    6.3151m    3.5874m 
   12.74000p    6.3152m    3.5843m 
   12.75000p    6.3154m    3.5812m 
   12.76000p    6.3155m    3.5781m 
   12.77000p    6.3156m    3.5750m 
   12.78000p    6.3158m    3.5719m 
   12.79000p    6.3159m    3.5688m 
   12.80000p    6.3161m    3.5657m 
   12.81000p    6.3162m    3.5625m 
   12.82000p    6.3164m    3.5594m 
   12.83000p    6.3165m    3.5563m 
   12.84000p    6.3167m    3.5532m 
   12.85000p    6.3168m    3.5501m 
   12.86000p    6.3170m    3.5470m 
   12.87000p    6.3171m    3.5439m 
   12.88000p    6.3172m    3.5408m 
   12.89000p    6.3174m    3.5377m 
   12.90000p    6.3175m    3.5345m 
   12.91000p    6.3177m    3.5314m 
   12.92000p    6.3178m    3.5283m 
   12.93000p    6.3180m    3.5252m 
   12.94000p    6.3181m    3.5221m 
   12.95000p    6.3183m    3.5190m 
   12.96000p    6.3184m    3.5159m 
   12.97000p    6.3186m    3.5128m 
   12.98000p    6.3187m    3.5097m 
   12.99000p    6.3188m    3.5065m 
   13.00000p    6.3190m    3.5034m 
   13.01000p    6.3191m    3.5003m 
   13.02000p    6.3193m    3.4972m 
   13.03000p    6.3194m    3.4941m 
   13.04000p    6.3196m    3.4910m 
   13.05000p    6.3197m    3.4879m 
   13.06000p    6.3199m    3.4848m 
   13.07000p    6.3200m    3.4817m 
   13.08000p    6.3202m    3.4785m 
   13.09000p    6.3203m    3.4754m 
   13.10000p    6.3205m    3.4723m 
   13.11000p    6.3206m    3.4692m 
   13.12000p    6.3207m    3.4661m 
   13.13000p    6.3209m    3.4630m 
   13.14000p    6.3210m    3.4599m 
   13.15000p    6.3212m    3.4568m 
   13.16000p    6.3213m    3.4537m 
   13.17000p    6.3215m    3.4505m 
   13.18000p    6.3216m    3.4474m 
   13.19000p    6.3218m    3.4443m 
   13.20000p    6.3219m    3.4412m 
   13.21000p    6.3221m    3.4381m 
   13.22000p    6.3222m    3.4350m 
   13.23000p    6.3223m    3.4319m 
   13.24000p    6.3225m    3.4288m 
   13.25000p    6.3226m    3.4256m 
   13.26000p    6.3228m    3.4225m 
   13.27000p    6.3229m    3.4194m 
   13.28000p    6.3231m    3.4163m 
   13.29000p    6.3232m    3.4132m 
   13.30000p    6.3234m    3.4101m 
   13.31000p    6.3235m    3.4070m 
   13.32000p    6.3237m    3.4039m 
   13.33000p    6.3238m    3.4008m 
   13.34000p    6.3239m    3.3976m 
   13.35000p    6.3241m    3.3945m 
   13.36000p    6.3242m    3.3914m 
   13.37000p    6.3244m    3.3883m 
   13.38000p    6.3245m    3.3852m 
   13.39000p    6.3247m    3.3821m 
   13.40000p    6.3248m    3.3790m 
   13.41000p    6.3250m    3.3759m 
   13.42000p    6.3251m    3.3728m 
   13.43000p    6.3253m    3.3696m 
   13.44000p    6.3254m    3.3665m 
   13.45000p    6.3255m    3.3634m 
   13.46000p    6.3257m    3.3603m 
   13.47000p    6.3258m    3.3572m 
   13.48000p    6.3260m    3.3541m 
   13.49000p    6.3261m    3.3510m 
   13.50000p    6.3263m    3.3479m 
   13.51000p    6.3264m    3.3448m 
   13.52000p    6.3266m    3.3416m 
   13.53000p    6.3267m    3.3385m 
   13.54000p    6.3269m    3.3354m 
   13.55000p    6.3270m    3.3323m 
   13.56000p    6.3271m    3.3292m 
   13.57000p    6.3273m    3.3261m 
   13.58000p    6.3274m    3.3230m 
   13.59000p    6.3276m    3.3199m 
   13.60000p    6.3277m    3.3167m 
   13.61000p    6.3279m    3.3136m 
   13.62000p    6.3280m    3.3105m 
   13.63000p    6.3282m    3.3074m 
   13.64000p    6.3283m    3.3043m 
   13.65000p    6.3285m    3.3012m 
   13.66000p    6.3286m    3.2981m 
   13.67000p    6.3288m    3.2950m 
   13.68000p    6.3289m    3.2919m 
   13.69000p    6.3290m    3.2887m 
   13.70000p    6.3292m    3.2856m 
   13.71000p    6.3293m    3.2825m 
   13.72000p    6.3295m    3.2794m 
   13.73000p    6.3296m    3.2763m 
   13.74000p    6.3298m    3.2732m 
   13.75000p    6.3299m    3.2701m 
   13.76000p    6.3301m    3.2670m 
   13.77000p    6.3302m    3.2639m 
   13.78000p    6.3304m    3.2607m 
   13.79000p    6.3305m    3.2576m 
   13.80000p    6.3306m    3.2545m 
   13.81000p    6.3308m    3.2514m 
   13.82000p    6.3309m    3.2483m 
   13.83000p    6.3311m    3.2452m 
   13.84000p    6.3312m    3.2421m 
   13.85000p    6.3314m    3.2390m 
   13.86000p    6.3315m    3.2359m 
   13.87000p    6.3317m    3.2327m 
   13.88000p    6.3318m    3.2296m 
   13.89000p    6.3320m    3.2265m 
   13.90000p    6.3321m    3.2234m 
   13.91000p    6.3322m    3.2203m 
   13.92000p    6.3324m    3.2172m 
   13.93000p    6.3325m    3.2141m 
   13.94000p    6.3327m    3.2110m 
   13.95000p    6.3328m    3.2079m 
   13.96000p    6.3330m    3.2047m 
   13.97000p    6.3331m    3.2016m 
   13.98000p    6.3333m    3.1985m 
   13.99000p    6.3334m    3.1954m 
   14.00000p    6.3336m    3.1923m 
   14.01000p    6.3337m    3.1892m 
   14.02000p    6.3338m    3.1861m 
   14.03000p    6.3340m    3.1830m 
   14.04000p    6.3341m    3.1798m 
   14.05000p    6.3343m    3.1767m 
   14.06000p    6.3344m    3.1736m 
   14.07000p    6.3346m    3.1705m 
   14.08000p    6.3347m    3.1674m 
   14.09000p    6.3349m    3.1643m 
   14.10000p    6.3350m    3.1612m 
   14.11000p    6.3352m    3.1581m 
   14.12000p    6.3353m    3.1550m 
   14.13000p    6.3354m    3.1518m 
   14.14000p    6.3356m    3.1487m 
   14.15000p    6.3357m    3.1456m 
   14.16000p    6.3359m    3.1425m 
   14.17000p    6.3360m    3.1394m 
   14.18000p    6.3362m    3.1363m 
   14.19000p    6.3363m    3.1332m 
   14.20000p    6.3365m    3.1301m 
   14.21000p    6.3366m    3.1270m 
   14.22000p    6.3368m    3.1238m 
   14.23000p    6.3369m    3.1207m 
   14.24000p    6.3370m    3.1176m 
   14.25000p    6.3372m    3.1145m 
   14.26000p    6.3373m    3.1114m 
   14.27000p    6.3375m    3.1083m 
   14.28000p    6.3376m    3.1052m 
   14.29000p    6.3378m    3.1021m 
   14.30000p    6.3379m    3.0990m 
   14.31000p    6.3381m    3.0958m 
   14.32000p    6.3382m    3.0927m 
   14.33000p    6.3384m    3.0896m 
   14.34000p    6.3385m    3.0865m 
   14.35000p    6.3387m    3.0834m 
   14.36000p    6.3388m    3.0803m 
   14.37000p    6.3389m    3.0772m 
   14.38000p    6.3391m    3.0741m 
   14.39000p    6.3392m    3.0710m 
   14.40000p    6.3394m    3.0678m 
   14.41000p    6.3395m    3.0647m 
   14.42000p    6.3397m    3.0616m 
   14.43000p    6.3398m    3.0585m 
   14.44000p    6.3400m    3.0554m 
   14.45000p    6.3401m    3.0523m 
   14.46000p    6.3403m    3.0492m 
   14.47000p    6.3404m    3.0461m 
   14.48000p    6.3405m    3.0429m 
   14.49000p    6.3407m    3.0398m 
   14.50000p    6.3408m    3.0367m 
   14.51000p    6.3410m    3.0336m 
   14.52000p    6.3411m    3.0305m 
   14.53000p    6.3413m    3.0274m 
   14.54000p    6.3414m    3.0243m 
   14.55000p    6.3416m    3.0212m 
   14.56000p    6.3417m    3.0181m 
   14.57000p    6.3419m    3.0149m 
   14.58000p    6.3420m    3.0118m 
   14.59000p    6.3421m    3.0087m 
   14.60000p    6.3423m    3.0056m 
   14.61000p    6.3424m    3.0025m 
   14.62000p    6.3426m    2.9994m 
   14.63000p    6.3427m    2.9963m 
   14.64000p    6.3429m    2.9932m 
   14.65000p    6.3430m    2.9901m 
   14.66000p    6.3432m    2.9869m 
   14.67000p    6.3433m    2.9838m 
   14.68000p    6.3435m    2.9807m 
   14.69000p    6.3436m    2.9776m 
   14.70000p    6.3437m    2.9745m 
   14.71000p    6.3439m    2.9714m 
   14.72000p    6.3440m    2.9683m 
   14.73000p    6.3442m    2.9652m 
   14.74000p    6.3443m    2.9621m 
   14.75000p    6.3445m    2.9589m 
   14.76000p    6.3446m    2.9558m 
   14.77000p    6.3448m    2.9527m 
   14.78000p    6.3449m    2.9496m 
   14.79000p    6.3451m    2.9465m 
   14.80000p    6.3452m    2.9434m 
   14.81000p    6.3453m    2.9403m 
   14.82000p    6.3455m    2.9372m 
   14.83000p    6.3456m    2.9341m 
   14.84000p    6.3458m    2.9309m 
   14.85000p    6.3459m    2.9278m 
   14.86000p    6.3461m    2.9247m 
   14.87000p    6.3462m    2.9216m 
   14.88000p    6.3464m    2.9185m 
   14.89000p    6.3465m    2.9154m 
   14.90000p    6.3467m    2.9123m 
   14.91000p    6.3468m    2.9092m 
   14.92000p    6.3470m    2.9060m 
   14.93000p    6.3471m    2.9029m 
   14.94000p    6.3472m    2.8998m 
   14.95000p    6.3474m    2.8967m 
   14.96000p    6.3475m    2.8936m 
   14.97000p    6.3477m    2.8905m 
   14.98000p    6.3478m    2.8874m 
   14.99000p    6.3480m    2.8843m 
   15.00000p    6.3481m    2.8812m 
   15.01000p    6.3483m    2.8780m 
   15.02000p    6.3484m    2.8749m 
   15.03000p    6.3486m    2.8718m 
   15.04000p    6.3487m    2.8687m 
   15.05000p    6.3488m    2.8656m 
   15.06000p    6.3490m    2.8625m 
   15.07000p    6.3491m    2.8594m 
   15.08000p    6.3493m    2.8563m 
   15.09000p    6.3494m    2.8532m 
   15.10000p    6.3496m    2.8500m 
   15.11000p    6.3497m    2.8469m 
   15.12000p    6.3499m    2.8438m 
   15.13000p    6.3500m    2.8407m 
   15.14000p    6.3502m    2.8376m 
   15.15000p    6.3503m    2.8345m 
   15.16000p    6.3504m    2.8314m 
   15.17000p    6.3506m    2.8283m 
   15.18000p    6.3507m    2.8252m 
   15.19000p    6.3509m    2.8220m 
   15.20000p    6.3510m    2.8189m 
   15.21000p    6.3512m    2.8158m 
   15.22000p    6.3513m    2.8127m 
   15.23000p    6.3515m    2.8096m 
   15.24000p    6.3516m    2.8065m 
   15.25000p    6.3518m    2.8034m 
   15.26000p    6.3519m    2.8003m 
   15.27000p    6.3520m    2.7971m 
   15.28000p    6.3522m    2.7940m 
   15.29000p    6.3523m    2.7909m 
   15.30000p    6.3525m    2.7878m 
   15.31000p    6.3526m    2.7847m 
   15.32000p    6.3528m    2.7816m 
   15.33000p    6.3529m    2.7785m 
   15.34000p    6.3531m    2.7754m 
   15.35000p    6.3532m    2.7723m 
   15.36000p    6.3534m    2.7691m 
   15.37000p    6.3535m    2.7660m 
   15.38000p    6.3536m    2.7629m 
   15.39000p    6.3538m    2.7598m 
   15.40000p    6.3539m    2.7567m 
   15.41000p    6.3541m    2.7536m 
   15.42000p    6.3542m    2.7505m 
   15.43000p    6.3544m    2.7474m 
   15.44000p    6.3545m    2.7443m 
   15.45000p    6.3547m    2.7411m 
   15.46000p    6.3548m    2.7380m 
   15.47000p    6.3550m    2.7349m 
   15.48000p    6.3551m    2.7318m 
   15.49000p    6.3553m    2.7287m 
   15.50000p    6.3554m    2.7256m 
   15.51000p    6.3555m    2.7225m 
   15.52000p    6.3557m    2.7194m 
   15.53000p    6.3558m    2.7163m 
   15.54000p    6.3560m    2.7131m 
   15.55000p    6.3561m    2.7100m 
   15.56000p    6.3563m    2.7069m 
   15.57000p    6.3564m    2.7038m 
   15.58000p    6.3566m    2.7007m 
   15.59000p    6.3567m    2.6976m 
   15.60000p    6.3569m    2.6945m 
   15.61000p    6.3570m    2.6914m 
   15.62000p    6.3571m    2.6883m 
   15.63000p    6.3573m    2.6851m 
   15.64000p    6.3574m    2.6820m 
   15.65000p    6.3576m    2.6789m 
   15.66000p    6.3577m    2.6758m 
   15.67000p    6.3579m    2.6727m 
   15.68000p    6.3580m    2.6696m 
   15.69000p    6.3582m    2.6665m 
   15.70000p    6.3583m    2.6634m 
   15.71000p    6.3585m    2.6602m 
   15.72000p    6.3586m    2.6571m 
   15.73000p    6.3587m    2.6540m 
   15.74000p    6.3589m    2.6509m 
   15.75000p    6.3590m    2.6478m 
   15.76000p    6.3592m    2.6447m 
   15.77000p    6.3593m    2.6416m 
   15.78000p    6.3595m    2.6385m 
   15.79000p    6.3596m    2.6354m 
   15.80000p    6.3598m    2.6322m 
   15.81000p    6.3599m    2.6291m 
   15.82000p    6.3601m    2.6260m 
   15.83000p    6.3602m    2.6229m 
   15.84000p    6.3603m    2.6198m 
   15.85000p    6.3605m    2.6167m 
   15.86000p    6.3606m    2.6136m 
   15.87000p    6.3608m    2.6105m 
   15.88000p    6.3609m    2.6074m 
   15.89000p    6.3611m    2.6042m 
   15.90000p    6.3612m    2.6011m 
   15.91000p    6.3614m    2.5980m 
   15.92000p    6.3615m    2.5949m 
   15.93000p    6.3617m    2.5918m 
   15.94000p    6.3618m    2.5887m 
   15.95000p    6.3619m    2.5856m 
   15.96000p    6.3621m    2.5825m 
   15.97000p    6.3622m    2.5794m 
   15.98000p    6.3624m    2.5762m 
   15.99000p    6.3625m    2.5731m 
   16.00000p    6.3627m    2.5700m 
   16.01000p    6.3628m    2.5669m 
   16.02000p    6.3630m    2.5638m 
   16.03000p    6.3631m    2.5607m 
   16.04000p    6.3633m    2.5576m 
   16.05000p    6.3634m    2.5545m 
   16.06000p    6.3635m    2.5514m 
   16.07000p    6.3637m    2.5482m 
   16.08000p    6.3638m    2.5451m 
   16.09000p    6.3640m    2.5420m 
   16.10000p    6.3641m    2.5389m 
   16.11000p    6.3643m    2.5358m 
   16.12000p    6.3644m    2.5327m 
   16.13000p    6.3646m    2.5296m 
   16.14000p    6.3647m    2.5265m 
   16.15000p    6.3649m    2.5233m 
   16.16000p    6.3650m    2.5202m 
   16.17000p    6.3652m    2.5171m 
   16.18000p    6.3653m    2.5140m 
   16.19000p    6.3654m    2.5109m 
   16.20000p    6.3656m    2.5078m 
   16.21000p    6.3657m    2.5047m 
   16.22000p    6.3659m    2.5016m 
   16.23000p    6.3660m    2.4985m 
   16.24000p    6.3662m    2.4953m 
   16.25000p    6.3663m    2.4922m 
   16.26000p    6.3665m    2.4891m 
   16.27000p    6.3666m    2.4860m 
   16.28000p    6.3668m    2.4829m 
   16.29000p    6.3669m    2.4798m 
   16.30000p    6.3670m    2.4767m 
   16.31000p    6.3672m    2.4736m 
   16.32000p    6.3673m    2.4705m 
   16.33000p    6.3675m    2.4673m 
   16.34000p    6.3676m    2.4642m 
   16.35000p    6.3678m    2.4611m 
   16.36000p    6.3679m    2.4580m 
   16.37000p    6.3681m    2.4549m 
   16.38000p    6.3682m    2.4518m 
   16.39000p    6.3684m    2.4487m 
   16.40000p    6.3685m    2.4456m 
   16.41000p    6.3686m    2.4425m 
   16.42000p    6.3688m    2.4393m 
   16.43000p    6.3689m    2.4362m 
   16.44000p    6.3691m    2.4331m 
   16.45000p    6.3692m    2.4300m 
   16.46000p    6.3694m    2.4269m 
   16.47000p    6.3695m    2.4238m 
   16.48000p    6.3697m    2.4207m 
   16.49000p    6.3698m    2.4176m 
   16.50000p    6.3700m    2.4145m 
   16.51000p    6.3701m    2.4113m 
   16.52000p    6.3702m    2.4082m 
   16.53000p    6.3704m    2.4051m 
   16.54000p    6.3705m    2.4020m 
   16.55000p    6.3707m    2.3989m 
   16.56000p    6.3708m    2.3958m 
   16.57000p    6.3710m    2.3927m 
   16.58000p    6.3711m    2.3896m 
   16.59000p    6.3713m    2.3864m 
   16.60000p    6.3714m    2.3833m 
   16.61000p    6.3716m    2.3802m 
   16.62000p    6.3717m    2.3771m 
   16.63000p    6.3718m    2.3740m 
   16.64000p    6.3720m    2.3709m 
   16.65000p    6.3721m    2.3678m 
   16.66000p    6.3723m    2.3647m 
   16.67000p    6.3724m    2.3616m 
   16.68000p    6.3726m    2.3584m 
   16.69000p    6.3727m    2.3553m 
   16.70000p    6.3729m    2.3522m 
   16.71000p    6.3730m    2.3491m 
   16.72000p    6.3732m    2.3460m 
   16.73000p    6.3733m    2.3429m 
   16.74000p    6.3735m    2.3398m 
   16.75000p    6.3736m    2.3367m 
   16.76000p    6.3737m    2.3336m 
   16.77000p    6.3739m    2.3304m 
   16.78000p    6.3740m    2.3273m 
   16.79000p    6.3742m    2.3242m 
   16.80000p    6.3743m    2.3211m 
   16.81000p    6.3745m    2.3180m 
   16.82000p    6.3746m    2.3149m 
   16.83000p    6.3748m    2.3118m 
   16.84000p    6.3749m    2.3087m 
   16.85000p    6.3751m    2.3056m 
   16.86000p    6.3752m    2.3024m 
   16.87000p    6.3753m    2.2993m 
   16.88000p    6.3755m    2.2962m 
   16.89000p    6.3756m    2.2931m 
   16.90000p    6.3758m    2.2900m 
   16.91000p    6.3759m    2.2869m 
   16.92000p    6.3761m    2.2838m 
   16.93000p    6.3762m    2.2807m 
   16.94000p    6.3764m    2.2775m 
   16.95000p    6.3765m    2.2744m 
   16.96000p    6.3767m    2.2713m 
   16.97000p    6.3768m    2.2682m 
   16.98000p    6.3769m    2.2651m 
   16.99000p    6.3771m    2.2620m 
   17.00000p    6.3772m    2.2589m 
   17.01000p    6.3774m    2.2558m 
   17.02000p    6.3775m    2.2527m 
   17.03000p    6.3777m    2.2495m 
   17.04000p    6.3778m    2.2464m 
   17.05000p    6.3780m    2.2433m 
   17.06000p    6.3781m    2.2402m 
   17.07000p    6.3783m    2.2371m 
   17.08000p    6.3784m    2.2340m 
   17.09000p    6.3785m    2.2309m 
   17.10000p    6.3787m    2.2278m 
   17.11000p    6.3788m    2.2247m 
   17.12000p    6.3790m    2.2215m 
   17.13000p    6.3791m    2.2184m 
   17.14000p    6.3793m    2.2153m 
   17.15000p    6.3794m    2.2122m 
   17.16000p    6.3796m    2.2091m 
   17.17000p    6.3797m    2.2060m 
   17.18000p    6.3799m    2.2029m 
   17.19000p    6.3800m    2.1998m 
   17.20000p    6.3801m    2.1967m 
   17.21000p    6.3803m    2.1935m 
   17.22000p    6.3804m    2.1904m 
   17.23000p    6.3806m    2.1873m 
   17.24000p    6.3807m    2.1842m 
   17.25000p    6.3809m    2.1811m 
   17.26000p    6.3810m    2.1780m 
   17.27000p    6.3812m    2.1749m 
   17.28000p    6.3813m    2.1718m 
   17.29000p    6.3815m    2.1687m 
   17.30000p    6.3816m    2.1655m 
   17.31000p    6.3818m    2.1624m 
   17.32000p    6.3819m    2.1593m 
   17.33000p    6.3820m    2.1562m 
   17.34000p    6.3822m    2.1531m 
   17.35000p    6.3823m    2.1500m 
   17.36000p    6.3825m    2.1469m 
   17.37000p    6.3826m    2.1438m 
   17.38000p    6.3828m    2.1406m 
   17.39000p    6.3829m    2.1375m 
   17.40000p    6.3831m    2.1344m 
   17.41000p    6.3832m    2.1313m 
   17.42000p    6.3834m    2.1282m 
   17.43000p    6.3835m    2.1251m 
   17.44000p    6.3836m    2.1220m 
   17.45000p    6.3838m    2.1189m 
   17.46000p    6.3839m    2.1158m 
   17.47000p    6.3841m    2.1126m 
   17.48000p    6.3842m    2.1095m 
   17.49000p    6.3844m    2.1064m 
   17.50000p    6.3845m    2.1033m 
   17.51000p    6.3847m    2.1002m 
   17.52000p    6.3848m    2.0971m 
   17.53000p    6.3850m    2.0940m 
   17.54000p    6.3851m    2.0909m 
   17.55000p    6.3852m    2.0878m 
   17.56000p    6.3854m    2.0846m 
   17.57000p    6.3855m    2.0815m 
   17.58000p    6.3857m    2.0784m 
   17.59000p    6.3858m    2.0753m 
   17.60000p    6.3860m    2.0722m 
   17.61000p    6.3861m    2.0691m 
   17.62000p    6.3863m    2.0660m 
   17.63000p    6.3864m    2.0629m 
   17.64000p    6.3866m    2.0598m 
   17.65000p    6.3867m    2.0566m 
   17.66000p    6.3868m    2.0535m 
   17.67000p    6.3870m    2.0504m 
   17.68000p    6.3871m    2.0473m 
   17.69000p    6.3873m    2.0442m 
   17.70000p    6.3874m    2.0411m 
   17.71000p    6.3876m    2.0380m 
   17.72000p    6.3877m    2.0349m 
   17.73000p    6.3879m    2.0318m 
   17.74000p    6.3880m    2.0286m 
   17.75000p    6.3882m    2.0255m 
   17.76000p    6.3883m    2.0224m 
   17.77000p    6.3884m    2.0193m 
   17.78000p    6.3886m    2.0162m 
   17.79000p    6.3887m    2.0131m 
   17.80000p    6.3889m    2.0100m 
   17.81000p    6.3890m    2.0069m 
   17.82000p    6.3892m    2.0037m 
   17.83000p    6.3893m    2.0006m 
   17.84000p    6.3895m    1.9975m 
   17.85000p    6.3896m    1.9944m 
   17.86000p    6.3898m    1.9913m 
   17.87000p    6.3899m    1.9882m 
   17.88000p    6.3900m    1.9851m 
   17.89000p    6.3902m    1.9820m 
   17.90000p    6.3903m    1.9789m 
   17.91000p    6.3905m    1.9757m 
   17.92000p    6.3906m    1.9726m 
   17.93000p    6.3908m    1.9695m 
   17.94000p    6.3909m    1.9664m 
   17.95000p    6.3911m    1.9633m 
   17.96000p    6.3912m    1.9602m 
   17.97000p    6.3914m    1.9571m 
   17.98000p    6.3915m    1.9540m 
   17.99000p    6.3917m    1.9509m 
   18.00000p    6.3918m    1.9477m 
   18.01000p    6.3919m    1.9446m 
   18.02000p    6.3921m    1.9415m 
   18.03000p    6.3922m    1.9384m 
   18.04000p    6.3924m    1.9353m 
   18.05000p    6.3925m    1.9322m 
   18.06000p    6.3927m    1.9291m 
   18.07000p    6.3928m    1.9260m 
   18.08000p    6.3930m    1.9229m 
   18.09000p    6.3931m    1.9197m 
   18.10000p    6.3933m    1.9166m 
   18.11000p    6.3934m    1.9135m 
   18.12000p    6.3935m    1.9104m 
   18.13000p    6.3927m    1.9055m 
   18.14000p    6.3877m    1.8930m 
   18.15000p    6.3826m    1.8806m 
   18.16000p    6.3776m    1.8681m 
   18.17000p    6.3726m    1.8557m 
   18.18000p    6.3676m    1.8432m 
   18.19000p    6.3626m    1.8308m 
   18.20000p    6.3576m    1.8183m 
   18.21000p    6.3525m    1.8059m 
   18.22000p    6.3475m    1.7934m 
   18.23000p    6.3425m    1.7809m 
   18.24000p    6.3375m    1.7685m 
   18.25000p    6.3325m    1.7560m 
   18.26000p    6.3274m    1.7436m 
   18.27000p    6.3224m    1.7311m 
   18.28000p    6.3174m    1.7187m 
   18.29000p    6.3124m    1.7062m 
   18.30000p    6.3074m    1.6938m 
   18.31000p    6.3024m    1.6813m 
   18.32000p    6.2973m    1.6689m 
   18.33000p    6.2923m    1.6564m 
   18.34000p    6.2873m    1.6440m 
   18.35000p    6.2823m    1.6315m 
   18.36000p    6.2773m    1.6191m 
   18.37000p    6.2722m    1.6066m 
   18.38000p    6.2672m    1.5942m 
   18.39000p    6.2622m    1.5817m 
   18.40000p    6.2572m    1.5693m 
   18.41000p    6.2522m    1.5568m 
   18.42000p    6.2472m    1.5444m 
   18.43000p    6.2421m    1.5319m 
   18.44000p    6.2371m    1.5195m 
   18.45000p    6.2321m    1.5070m 
   18.46000p    6.2271m    1.4945m 
   18.47000p    6.2221m    1.4821m 
   18.48000p    6.2171m    1.4696m 
   18.49000p    6.2120m    1.4572m 
   18.50000p    6.2070m    1.4447m 
   18.51000p    6.2020m    1.4323m 
   18.52000p    6.1970m    1.4198m 
   18.53000p    6.1920m    1.4074m 
   18.54000p    6.1869m    1.3949m 
   18.55000p    6.1819m    1.3825m 
   18.56000p    6.1769m    1.3700m 
   18.57000p    6.1719m    1.3576m 
   18.58000p    6.1669m    1.3451m 
   18.59000p    6.1619m    1.3327m 
   18.60000p    6.1568m    1.3202m 
   18.61000p    6.1518m    1.3078m 
   18.62000p    6.1468m    1.2953m 
   18.63000p    6.1418m    1.2829m 
   18.64000p    6.1368m    1.2704m 
   18.65000p    6.1317m    1.2580m 
   18.66000p    6.1267m    1.2455m 
   18.67000p    6.1217m    1.2330m 
   18.68000p    6.1167m    1.2206m 
   18.69000p    6.1117m    1.2081m 
   18.70000p    6.1067m    1.1957m 
   18.71000p    6.1016m    1.1832m 
   18.72000p    6.0966m    1.1708m 
   18.73000p    6.0916m    1.1583m 
   18.74000p    6.0866m    1.1459m 
   18.75000p    6.0816m    1.1334m 
   18.76000p    6.0765m    1.1210m 
   18.77000p    6.0715m    1.1085m 
   18.78000p    6.0665m    1.0961m 
   18.79000p    6.0615m    1.0836m 
   18.80000p    6.0565m    1.0712m 
   18.81000p    6.0515m    1.0587m 
   18.82000p    6.0464m    1.0463m 
   18.83000p    6.0414m    1.0338m 
   18.84000p    6.0364m    1.0214m 
   18.85000p    6.0314m    1.0089m 
   18.86000p    6.0264m  996.4511u 
   18.87000p    6.0213m  983.9987u 
   18.88000p    6.0163m  971.5463u 
   18.89000p    6.0113m  959.0940u 
   18.90000p    6.0063m  946.6416u 
   18.91000p    6.0013m  934.1893u 
   18.92000p    5.9963m  921.7369u 
   18.93000p    5.9912m  909.2845u 
   18.94000p    5.9862m  896.8322u 
   18.95000p    5.9812m  884.3798u 
   18.96000p    5.9762m  871.9275u 
   18.97000p    5.9712m  859.4751u 
   18.98000p    5.9661m  847.0228u 
   18.99000p    5.9611m  834.5704u 
   19.00000p    5.9561m  822.1180u 
   19.01000p    5.9511m  809.6657u 
   19.02000p    5.9461m  797.2133u 
   19.03000p    5.9411m  784.7610u 
   19.04000p    5.9360m  772.3086u 
[...]
  495.00000p  892.2243m  893.6729m 
  495.01000p  892.2269m  893.6731m 
  495.02000p  892.2295m  893.6732m 
  495.03000p  892.2321m  893.6733m 
  495.04000p  892.2346m  893.6735m 
  495.05000p  892.2372m  893.6736m 
  495.06000p  892.2398m  893.6737m 
  495.07000p  892.2424m  893.6739m 
  495.08000p  892.2450m  893.6740m 
  495.09000p  892.2475m  893.6742m 
  495.10000p  892.2501m  893.6743m 
  495.11000p  892.2527m  893.6744m 
  495.12000p  892.2553m  893.6746m 
  495.13000p  892.2579m  893.6747m 
  495.14000p  892.2604m  893.6749m 
  495.15000p  892.2630m  893.6750m 
  495.16000p  892.2656m  893.6751m 
  495.17000p  892.2682m  893.6753m 
  495.18000p  892.2708m  893.6754m 
  495.19000p  892.2733m  893.6755m 
  495.20000p  892.2759m  893.6757m 
  495.21000p  892.2785m  893.6758m 
  495.22000p  892.2811m  893.6760m 
  495.23000p  892.2836m  893.6761m 
  495.24000p  892.2862m  893.6762m 
  495.25000p  892.2888m  893.6764m 
  495.26000p  892.2914m  893.6765m 
  495.27000p  892.2940m  893.6767m 
  495.28000p  892.2965m  893.6768m 
  495.29000p  892.2991m  893.6769m 
  495.30000p  892.3017m  893.6771m 
  495.31000p  892.3043m  893.6772m 
  495.32000p  892.3069m  893.6773m 
  495.33000p  892.3094m  893.6775m 
  495.34000p  892.3120m  893.6776m 
  495.35000p  892.3146m  893.6778m 
  495.36000p  892.3172m  893.6779m 
  495.37000p  892.3198m  893.6780m 
  495.38000p  892.3223m  893.6782m 
  495.39000p  892.3249m  893.6783m 
  495.40000p  892.3275m  893.6785m 
  495.41000p  892.3301m  893.6786m 
  495.42000p  892.3327m  893.6787m 
  495.43000p  892.3352m  893.6789m 
  495.44000p  892.3378m  893.6790m 
  495.45000p  892.3404m  893.6791m 
  495.46000p  892.3430m  893.6793m 
  495.47000p  892.3456m  893.6794m 
  495.48000p  892.3481m  893.6796m 
  495.49000p  892.3507m  893.6797m 
  495.50000p  892.3533m  893.6798m 
  495.51000p  892.3559m  893.6800m 
  495.52000p  892.3585m  893.6801m 
  495.53000p  892.3610m  893.6803m 
  495.54000p  892.3636m  893.6804m 
  495.55000p  892.3662m  893.6805m 
  495.56000p  892.3688m  893.6807m 
  495.57000p  892.3714m  893.6808m 
  495.58000p  892.3739m  893.6809m 
  495.59000p  892.3765m  893.6811m 
  495.60000p  892.3791m  893.6812m 
  495.61000p  892.3817m  893.6814m 
  495.62000p  892.3843m  893.6815m 
  495.63000p  892.3868m  893.6816m 
  495.64000p  892.3894m  893.6818m 
  495.65000p  892.3920m  893.6819m 
  495.66000p  892.3946m  893.6821m 
  495.67000p  892.3972m  893.6822m 
  495.68000p  892.3997m  893.6823m 
  495.69000p  892.4023m  893.6825m 
  495.70000p  892.4049m  893.6826m 
  495.71000p  892.4075m  893.6827m 
  495.72000p  892.4101m  893.6829m 
  495.73000p  892.4126m  893.6830m 
  495.74000p  892.4152m  893.6832m 
  495.75000p  892.4178m  893.6833m 
  495.76000p  892.4204m  893.6834m 
  495.77000p  892.4230m  893.6836m 
  495.78000p  892.4255m  893.6837m 
  495.79000p  892.4281m  893.6839m 
  495.80000p  892.4307m  893.6840m 
  495.81000p  892.4333m  893.6841m 
  495.82000p  892.4359m  893.6843m 
  495.83000p  892.4384m  893.6844m 
  495.84000p  892.4410m  893.6845m 
  495.85000p  892.4436m  893.6847m 
  495.86000p  892.4462m  893.6848m 
  495.87000p  892.4488m  893.6850m 
  495.88000p  892.4513m  893.6851m 
  495.89000p  892.4539m  893.6852m 
  495.90000p  892.4565m  893.6854m 
  495.91000p  892.4591m  893.6855m 
  495.92000p  892.4617m  893.6857m 
  495.93000p  892.4642m  893.6858m 
  495.94000p  892.4668m  893.6859m 
  495.95000p  892.4694m  893.6861m 
  495.96000p  892.4720m  893.6862m 
  495.97000p  892.4746m  893.6863m 
  495.98000p  892.4771m  893.6865m 
  495.99000p  892.4797m  893.6866m 
  496.00000p  892.4823m  893.6868m 
  496.01000p  892.4849m  893.6869m 
  496.02000p  892.4875m  893.6870m 
  496.03000p  892.4900m  893.6872m 
  496.04000p  892.4926m  893.6873m 
  496.05000p  892.4952m  893.6875m 
  496.06000p  892.4978m  893.6876m 
  496.07000p  892.5004m  893.6877m 
  496.08000p  892.5029m  893.6879m 
  496.09000p  892.5055m  893.6880m 
  496.10000p  892.5081m  893.6881m 
  496.11000p  892.5107m  893.6883m 
  496.12000p  892.5133m  893.6884m 
  496.13000p  892.5158m  893.6886m 
  496.14000p  892.5184m  893.6887m 
  496.15000p  892.5210m  893.6888m 
  496.16000p  892.5236m  893.6890m 
  496.17000p  892.5262m  893.6891m 
  496.18000p  892.5287m  893.6893m 
  496.19000p  892.5313m  893.6894m 
  496.20000p  892.5339m  893.6895m 
  496.21000p  892.5365m  893.6897m 
  496.22000p  892.5391m  893.6898m 
  496.23000p  892.5416m  893.6899m 
  496.24000p  892.5442m  893.6901m 
  496.25000p  892.5468m  893.6902m 
  496.26000p  892.5494m  893.6904m 
  496.27000p  892.5520m  893.6905m 
  496.28000p  892.5545m  893.6906m 
  496.29000p  892.5571m  893.6908m 
  496.30000p  892.5597m  893.6909m 
  496.31000p  892.5623m  893.6911m 
  496.32000p  892.5649m  893.6912m 
  496.33000p  892.5674m  893.6913m 
  496.34000p  892.5700m  893.6915m 
  496.35000p  892.5726m  893.6916m 
  496.36000p  892.5752m  893.6917m 
  496.37000p  892.5778m  893.6919m 
  496.38000p  892.5803m  893.6920m 
  496.39000p  892.5829m  893.6922m 
  496.40000p  892.5855m  893.6923m 
  496.41000p  892.5881m  893.6924m 
  496.42000p  892.5907m  893.6926m 
  496.43000p  892.5932m  893.6927m 
  496.44000p  892.5958m  893.6928m 
  496.45000p  892.5984m  893.6930m 
  496.46000p  892.6010m  893.6931m 
  496.47000p  892.6032m  893.6933m 
  496.48000p  892.6054m  893.6936m 
  496.49000p  892.6076m  893.6938m 
  496.50000p  892.6098m  893.6940m 
  496.51000p  892.6120m  893.6943m 
  496.52000p  892.6141m  893.6945m 
  496.53000p  892.6163m  893.6947m 
  496.54000p  892.6185m  893.6949m 
  496.55000p  892.6207m  893.6952m 
  496.56000p  892.6229m  893.6954m 
  496.57000p  892.6251m  893.6956m 
  496.58000p  892.6273m  893.6958m 
  496.59000p  892.6295m  893.6961m 
  496.60000p  892.6316m  893.6963m 
  496.61000p  892.6338m  893.6965m 
  496.62000p  892.6360m  893.6968m 
  496.63000p  892.6382m  893.6970m 
  496.64000p  892.6404m  893.6972m 
  496.65000p  892.6426m  893.6974m 
  496.66000p  892.6448m  893.6977m 
  496.67000p  892.6470m  893.6979m 
  496.68000p  892.6491m  893.6981m 
  496.69000p  892.6513m  893.6983m 
  496.70000p  892.6535m  893.6986m 
  496.71000p  892.6557m  893.6988m 
  496.72000p  892.6579m  893.6990m 
  496.73000p  892.6601m  893.6993m 
  496.74000p  892.6623m  893.6995m 
  496.75000p  892.6645m  893.6997m 
  496.76000p  892.6666m  893.6999m 
  496.77000p  892.6688m  893.7002m 
  496.78000p  892.6710m  893.7004m 
  496.79000p  892.6732m  893.7006m 
  496.80000p  892.6754m  893.7008m 
  496.81000p  892.6776m  893.7011m 
  496.82000p  892.6798m  893.7013m 
  496.83000p  892.6819m  893.7015m 
  496.84000p  892.6841m  893.7018m 
  496.85000p  892.6863m  893.7020m 
  496.86000p  892.6885m  893.7022m 
  496.87000p  892.6907m  893.7024m 
  496.88000p  892.6929m  893.7027m 
  496.89000p  892.6951m  893.7029m 
  496.90000p  892.6973m  893.7031m 
  496.91000p  892.6994m  893.7034m 
  496.92000p  892.7016m  893.7036m 
  496.93000p  892.7038m  893.7038m 
  496.94000p  892.7060m  893.7040m 
  496.95000p  892.7082m  893.7043m 
  496.96000p  892.7104m  893.7045m 
  496.97000p  892.7126m  893.7047m 
  496.98000p  892.7148m  893.7049m 
  496.99000p  892.7169m  893.7052m 
  497.00000p  892.7191m  893.7054m 
  497.01000p  892.7213m  893.7056m 
  497.02000p  892.7235m  893.7059m 
  497.03000p  892.7257m  893.7061m 
  497.04000p  892.7279m  893.7063m 
  497.05000p  892.7301m  893.7065m 
  497.06000p  892.7323m  893.7068m 
  497.07000p  892.7344m  893.7070m 
  497.08000p  892.7366m  893.7072m 
  497.09000p  892.7388m  893.7074m 
  497.10000p  892.7410m  893.7077m 
  497.11000p  892.7432m  893.7079m 
  497.12000p  892.7454m  893.7081m 
  497.13000p  892.7476m  893.7084m 
  497.14000p  892.7498m  893.7086m 
  497.15000p  892.7519m  893.7088m 
  497.16000p  892.7541m  893.7090m 
  497.17000p  892.7563m  893.7093m 
  497.18000p  892.7585m  893.7095m 
  497.19000p  892.7607m  893.7097m 
  497.20000p  892.7629m  893.7099m 
  497.21000p  892.7651m  893.7102m 
  497.22000p  892.7672m  893.7104m 
  497.23000p  892.7694m  893.7106m 
  497.24000p  892.7716m  893.7109m 
  497.25000p  892.7738m  893.7111m 
  497.26000p  892.7760m  893.7113m 
  497.27000p  892.7782m  893.7115m 
  497.28000p  892.7804m  893.7118m 
  497.29000p  892.7826m  893.7120m 
  497.30000p  892.7847m  893.7122m 
  497.31000p  892.7869m  893.7124m 
  497.32000p  892.7891m  893.7127m 
  497.33000p  892.7913m  893.7129m 
  497.34000p  892.7935m  893.7131m 
  497.35000p  892.7957m  893.7134m 
  497.36000p  892.7979m  893.7136m 
  497.37000p  892.8001m  893.7138m 
  497.38000p  892.8022m  893.7140m 
  497.39000p  892.8044m  893.7143m 
  497.40000p  892.8066m  893.7145m 
  497.41000p  892.8088m  893.7147m 
  497.42000p  892.8110m  893.7150m 
  497.43000p  892.8132m  893.7152m 
  497.44000p  892.8154m  893.7154m 
  497.45000p  892.8176m  893.7156m 
  497.46000p  892.8197m  893.7159m 
  497.47000p  892.8219m  893.7161m 
  497.48000p  892.8241m  893.7163m 
  497.49000p  892.8263m  893.7165m 
  497.50000p  892.8285m  893.7168m 
  497.51000p  892.8307m  893.7170m 
  497.52000p  892.8329m  893.7172m 
  497.53000p  892.8351m  893.7175m 
  497.54000p  892.8372m  893.7177m 
  497.55000p  892.8394m  893.7179m 
  497.56000p  892.8416m  893.7181m 
  497.57000p  892.8438m  893.7184m 
  497.58000p  892.8460m  893.7186m 
  497.59000p  892.8482m  893.7188m 
  497.60000p  892.8504m  893.7190m 
  497.61000p  892.8525m  893.7193m 
  497.62000p  892.8547m  893.7195m 
  497.63000p  892.8569m  893.7197m 
  497.64000p  892.8591m  893.7200m 
  497.65000p  892.8613m  893.7202m 
  497.66000p  892.8635m  893.7204m 
  497.67000p  892.8657m  893.7206m 
  497.68000p  892.8679m  893.7209m 
  497.69000p  892.8700m  893.7211m 
  497.70000p  892.8722m  893.7213m 
  497.71000p  892.8744m  893.7215m 
  497.72000p  892.8766m  893.7218m 
  497.73000p  892.8788m  893.7220m 
  497.74000p  892.8810m  893.7222m 
  497.75000p  892.8832m  893.7225m 
  497.76000p  892.8854m  893.7227m 
  497.77000p  892.8875m  893.7229m 
  497.78000p  892.8897m  893.7231m 
  497.79000p  892.8919m  893.7234m 
  497.80000p  892.8941m  893.7236m 
  497.81000p  892.8963m  893.7238m 
  497.82000p  892.8985m  893.7240m 
  497.83000p  892.9007m  893.7243m 
  497.84000p  892.9029m  893.7245m 
  497.85000p  892.9050m  893.7247m 
  497.86000p  892.9072m  893.7250m 
  497.87000p  892.9094m  893.7252m 
  497.88000p  892.9116m  893.7254m 
  497.89000p  892.9138m  893.7256m 
  497.90000p  892.9160m  893.7259m 
  497.91000p  892.9182m  893.7261m 
  497.92000p  892.9204m  893.7263m 
  497.93000p  892.9225m  893.7266m 
  497.94000p  892.9247m  893.7268m 
  497.95000p  892.9269m  893.7270m 
  497.96000p  892.9291m  893.7272m 
  497.97000p  892.9313m  893.7275m 
  497.98000p  892.9335m  893.7277m 
  497.99000p  892.9357m  893.7279m 
  498.00000p  892.9378m  893.7281m 
  498.01000p  892.9400m  893.7284m 
  498.02000p  892.9422m  893.7286m 
  498.03000p  892.9444m  893.7288m 
  498.04000p  892.9466m  893.7291m 
  498.05000p  892.9488m  893.7293m 
  498.06000p  892.9510m  893.7295m 
  498.07000p  892.9532m  893.7297m 
  498.08000p  892.9553m  893.7300m 
  498.09000p  892.9575m  893.7302m 
  498.10000p  892.9597m  893.7304m 
  498.11000p  892.9619m  893.7306m 
  498.12000p  892.9641m  893.7309m 
  498.13000p  892.9663m  893.7311m 
  498.14000p  892.9685m  893.7313m 
  498.15000p  892.9707m  893.7316m 
  498.16000p  892.9728m  893.7318m 
  498.17000p  892.9750m  893.7320m 
  498.18000p  892.9772m  893.7322m 
  498.19000p  892.9794m  893.7325m 
  498.20000p  892.9816m  893.7327m 
  498.21000p  892.9838m  893.7329m 
  498.22000p  892.9860m  893.7331m 
  498.23000p  892.9882m  893.7334m 
  498.24000p  892.9903m  893.7336m 
  498.25000p  892.9925m  893.7338m 
  498.26000p  892.9947m  893.7341m 
  498.27000p  892.9969m  893.7343m 
  498.28000p  892.9991m  893.7345m 
  498.29000p  893.0013m  893.7347m 
  498.30000p  893.0035m  893.7350m 
  498.31000p  893.0057m  893.7352m 
  498.32000p  893.0078m  893.7354m 
  498.33000p  893.0100m  893.7356m 
  498.34000p  893.0122m  893.7359m 
  498.35000p  893.0144m  893.7361m 
  498.36000p  893.0166m  893.7363m 
  498.37000p  893.0188m  893.7366m 
  498.38000p  893.0210m  893.7368m 
  498.39000p  893.0232m  893.7370m 
  498.40000p  893.0253m  893.7372m 
  498.41000p  893.0275m  893.7375m 
  498.42000p  893.0297m  893.7377m 
  498.43000p  893.0319m  893.7379m 
  498.44000p  893.0341m  893.7382m 
  498.45000p  893.0363m  893.7384m 
  498.46000p  893.0385m  893.7386m 
  498.47000p  893.0406m  893.7388m 
  498.48000p  893.0428m  893.7391m 
  498.49000p  893.0450m  893.7393m 
  498.50000p  893.0472m  893.7395m 
  498.51000p  893.0494m  893.7397m 
  498.52000p  893.0516m  893.7400m 
  498.53000p  893.0538m  893.7402m 
  498.54000p  893.0560m  893.7404m 
  498.55000p  893.0581m  893.7407m 
  498.56000p  893.0603m  893.7409m 
  498.57000p  893.0625m  893.7411m 
  498.58000p  893.0647m  893.7413m 
  498.59000p  893.0669m  893.7416m 
  498.60000p  893.0691m  893.7418m 
  498.61000p  893.0713m  893.7420m 
  498.62000p  893.0735m  893.7422m 
  498.63000p  893.0756m  893.7425m 
  498.64000p  893.0778m  893.7427m 
  498.65000p  893.0800m  893.7429m 
  498.66000p  893.0822m  893.7432m 
  498.67000p  893.0844m  893.7434m 
  498.68000p  893.0866m  893.7436m 
  498.69000p  893.0888m  893.7438m 
  498.70000p  893.0910m  893.7441m 
  498.71000p  893.0931m  893.7443m 
  498.72000p  893.0953m  893.7445m 
  498.73000p  893.0975m  893.7447m 
  498.74000p  893.0997m  893.7450m 
  498.75000p  893.1019m  893.7452m 
  498.76000p  893.1041m  893.7454m 
  498.77000p  893.1063m  893.7457m 
  498.78000p  893.1085m  893.7459m 
  498.79000p  893.1106m  893.7461m 
  498.80000p  893.1128m  893.7463m 
  498.81000p  893.1150m  893.7466m 
  498.82000p  893.1172m  893.7468m 
  498.83000p  893.1194m  893.7470m 
  498.84000p  893.1216m  893.7472m 
  498.85000p  893.1238m  893.7475m 
  498.86000p  893.1259m  893.7477m 
  498.87000p  893.1281m  893.7479m 
  498.88000p  893.1303m  893.7482m 
  498.89000p  893.1325m  893.7484m 
  498.90000p  893.1347m  893.7486m 
  498.91000p  893.1369m  893.7488m 
  498.92000p  893.1391m  893.7491m 
  498.93000p  893.1413m  893.7493m 
  498.94000p  893.1434m  893.7495m 
  498.95000p  893.1456m  893.7498m 
  498.96000p  893.1478m  893.7500m 
  498.97000p  893.1500m  893.7502m 
  498.98000p  893.1522m  893.7504m 
  498.99000p  893.1544m  893.7507m 
  499.00000p  893.1566m  893.7509m 
  499.01000p  893.1588m  893.7511m 
  499.02000p  893.1609m  893.7513m 
  499.03000p  893.1631m  893.7516m 
  499.04000p  893.1653m  893.7518m 
  499.05000p  893.1675m  893.7520m 
  499.06000p  893.1697m  893.7523m 
  499.07000p  893.1719m  893.7525m 
  499.08000p  893.1741m  893.7527m 
  499.09000p  893.1763m  893.7529m 
  499.10000p  893.1784m  893.7532m 
  499.11000p  893.1806m  893.7534m 
  499.12000p  893.1828m  893.7536m 
  499.13000p  893.1850m  893.7538m 
  499.14000p  893.1872m  893.7541m 
  499.15000p  893.1894m  893.7543m 
  499.16000p  893.1916m  893.7545m 
  499.17000p  893.1938m  893.7548m 
  499.18000p  893.1959m  893.7550m 
  499.19000p  893.1981m  893.7552m 
  499.20000p  893.2003m  893.7554m 
  499.21000p  893.2025m  893.7557m 
  499.22000p  893.2047m  893.7559m 
  499.23000p  893.2069m  893.7561m 
  499.24000p  893.2091m  893.7563m 
  499.25000p  893.2112m  893.7566m 
  499.26000p  893.2134m  893.7568m 
  499.27000p  893.2156m  893.7570m 
  499.28000p  893.2178m  893.7573m 
  499.29000p  893.2200m  893.7575m 
  499.30000p  893.2222m  893.7577m 
  499.31000p  893.2244m  893.7579m 
  499.32000p  893.2266m  893.7582m 
  499.33000p  893.2287m  893.7584m 
  499.34000p  893.2309m  893.7586m 
  499.35000p  893.2331m  893.7588m 
  499.36000p  893.2353m  893.7591m 
  499.37000p  893.2375m  893.7593m 
  499.38000p  893.2397m  893.7595m 
  499.39000p  893.2419m  893.7598m 
  499.40000p  893.2441m  893.7600m 
  499.41000p  893.2462m  893.7602m 
  499.42000p  893.2484m  893.7604m 
  499.43000p  893.2506m  893.7607m 
  499.44000p  893.2528m  893.7609m 
  499.45000p  893.2550m  893.7611m 
  499.46000p  893.2572m  893.7614m 
  499.47000p  893.2594m  893.7616m 
  499.48000p  893.2616m  893.7618m 
  499.49000p  893.2637m  893.7620m 
  499.50000p  893.2659m  893.7623m 
  499.51000p  893.2681m  893.7625m 
  499.52000p  893.2703m  893.7627m 
  499.53000p  893.2725m  893.7629m 
  499.54000p  893.2747m  893.7632m 
  499.55000p  893.2769m  893.7634m 
  499.56000p  893.2791m  893.7636m 
  499.57000p  893.2812m  893.7639m 
  499.58000p  893.2834m  893.7641m 
  499.59000p  893.2856m  893.7643m 
  499.60000p  893.2878m  893.7645m 
  499.61000p  893.2900m  893.7648m 
  499.62000p  893.2922m  893.7650m 
  499.63000p  893.2944m  893.7652m 
  499.64000p  893.2965m  893.7654m 
  499.65000p  893.2987m  893.7657m 
  499.66000p  893.3009m  893.7659m 
  499.67000p  893.3031m  893.7661m 
  499.68000p  893.3053m  893.7664m 
  499.69000p  893.3075m  893.7666m 
  499.70000p  893.3097m  893.7668m 
  499.71000p  893.3119m  893.7670m 
  499.72000p  893.3140m  893.7673m 
  499.73000p  893.3162m  893.7675m 
  499.74000p  893.3184m  893.7677m 
  499.75000p  893.3206m  893.7679m 
  499.76000p  893.3228m  893.7682m 
  499.77000p  893.3250m  893.7684m 
  499.78000p  893.3272m  893.7686m 
  499.79000p  893.3294m  893.7689m 
  499.80000p  893.3315m  893.7691m 
  499.81000p  893.3337m  893.7693m 
  499.82000p  893.3359m  893.7695m 
  499.83000p  893.3381m  893.7698m 
  499.84000p  893.3403m  893.7700m 
  499.85000p  893.3425m  893.7702m 
  499.86000p  893.3447m  893.7704m 
  499.87000p  893.3469m  893.7707m 
  499.88000p  893.3490m  893.7709m 
  499.89000p  893.3512m  893.7711m 
  499.90000p  893.3534m  893.7714m 
  499.91000p  893.3556m  893.7716m 
  499.92000p  893.3578m  893.7718m 
  499.93000p  893.3600m  893.7720m 
  499.94000p  893.3622m  893.7723m 
  499.95000p  893.3644m  893.7725m 
  499.96000p  893.3665m  893.7727m 
  499.97000p  893.3687m  893.7730m 
  499.98000p  893.3709m  893.7732m 
  499.99000p  893.3731m  893.7734m 
  500.00000p  893.3753m  893.7736m 
y

          ***** job concluded
 ******  
 * eda yan

 ****** job statistics summary tnom=  25.000 temp=  25.000 ******
  
 ******  Machine Information  ******
 CPU:
 model name	: Intel(R) Xeon(R) CPU E7- 8837  @ 2.67GHz
 cpu MHz	: 2663.941
  
 OS:
 Linux version 3.16.0-10-amd64 (debian-kernel@lists.debian.org) (gcc version 4.9.2 (Debian 4.9.2-10+deb8u2) ) #1 SMP Debian 3.16.81-1 (2020-01-17)


  ******  HSPICE Threads Information  ******

  Command Line Threads Count :     1
  Available CPU Count        :    32
  Actual Threads Count       :     1


  ******  Circuit Statistics  ******
  # nodes       =     116 # elements   =      34
  # resistors   =       1 # capacitors =       2 # inductors   =       0
  # mutual_inds =       0 # vccs       =       0 # vcvs        =       0
  # cccs        =       0 # ccvs       =       0 # volt_srcs   =       7
  # curr_srcs   =       0 # diodes     =       0 # bjts        =       0
  # jfets       =       0 # mosfets    =      24 # U elements  =       0
  # T elements  =       0 # W elements =       0 # B elements  =       0
  # S elements  =       0 # P elements =       0 # va device   =       0
  # vector_srcs =       0 # N elements =       0


  ******  Runtime Statistics (seconds)  ******

  analysis           time    # points   tot. iter  conv.iter
  op point           0.01           1          10
  transient          0.18       50001         324         123 rev=        10
  readin             0.02
  errchk             0.02
  setup              0.00
  output             0.01


           peak memory used        312.72 megabytes
           total cpu time            1.10 seconds
           total elapsed time        0.68 seconds
           job started at     01:58:16 05/12/2020
           job ended   at     01:58:17 05/12/2020



>info:         ***** hspice job concluded
 lic: Release hspice token(s) 
 lic: total license checkout elapse time:        0.07(s)
