Using: /opt/synopsys/hspice/O-2018.09-SP2-2/hspice/linux64/hspice c17.sp
 ****** HSPICE -- O-2018.09-SP2-2 linux64 (May  9 2019) ******                  
  Copyright (c) 1986 - 2020 by Synopsys, Inc. All Rights Reserved.              
  This software and the associated documentation are proprietary
  to Synopsys, Inc. This software may only be used in accordance
  with the terms and conditions of a written license agreement with
  Synopsys, Inc. All other use, reproduction, or distribution of
  this software is strictly prohibited.
  Input File: c17.sp                                                            
  Command line options: /opt/synopsys/hspice/O-2018.09-SP2-2/hspice/linux64/hspice c17.sp
  Start time: Sun May 10 16:34:45 2020
 lic:  
 lic: FLEXlm: SDK_11.7.3 
 lic: USER:   mitsushij            HOSTNAME: sahand 
 lic: HOSTID: "80c16e72eecb"       PID:      71105 
 lic: Using FLEXlm license file: 
 lic: 1720@ics-lic2.usc.edu 
 lic: Checkout 1 hspice 
 lic: License/Maintenance for hspice will expire on 30-jun-2021/2019.06 
 lic: 1(in_use)/50(total) FLOATING license(s) on SERVER 1720@ics-lic2.usc.edu 
 lic:   
  **warning** (/home/home2/visiting/mitsushij/workspace/CSM/simulation/../data/modelfiles/PTM_MG/hp/7nm_HP.pm:13) Model nfet device geometries will not be checked against the limits set by lmin, lmax, nfinmin and nfinmax. To enable this check, add a period(.) to the model name(i.e. enable model selector).
1****** HSPICE -- O-2018.09-SP2-2 linux64 (May  9 2019) ******                  
 ******  
 * eda yan

 ****** circuit name directory
 circuit number to circuit name directory
   number circuitname                     definition         multiplier
        0 main circuit
        1 xnand2_1.                       nand2              1.00 
        2 xnand2_2.                       nand2              1.00 
        3 xnand2_3.                       nand2              1.00 
        4 xnand2_4.                       nand2              1.00 
        5 xnand2_5.                       nand2              1.00 
        6 xnand2_6.                       nand2              1.00 
  **info** (c17.sp:24) DC voltage reset to initial transient source value in source 0:vn1. new dc=0.0000D+00
  
  **warning**  the following singular supplies have a terminal that is not connected to any other element
 supply                 node1                  node2
 vlo                 0:lo               defined in subckt 0            0:0                defined in subckt 0
  
      

Element variations(Local):   element              parameter
 **info** set option symb=1 internally to help for convergence.
 *****************************************************************
 ******  option summary
 ******
 runlvl  = 3         bypass  = 2.0000    
 ******  
 * eda yan

 ****** operating point information tnom=  25.000 temp=  25.000 ******
 ****** operating point status is all       simulation time is     0.     
    node    =voltage      node    =voltage      node    =voltage

 +0:hi      = 700.0000m 0:lo      =   0.      0:n1      =   0.     
 +0:n10     = 699.9987m 0:n11     = 699.9987m 0:n16     = 699.9850m
 +0:n19     = 699.9870m 0:n2      =   0.      0:n22     =  46.3304u
 +0:n23     =  46.3385u 0:n3      =   0.      0:n6      =   0.     
 +0:n7      =   0.      1:n1      =  54.8555m 2:n1      =  54.8555m
 +3:n1      =  12.0165u 4:n1      = 646.0377m 5:n1      =  23.2344u
 +6:n1      =  23.2384u


 **** voltage sources

 subckt                                                                    
 element  0:vhi      0:vlo      0:vn1      0:vn2      0:vn3      0:vn6     
  volts    700.0000m    0.         0.         0.         0.         0.     
  current  -24.2852n    0.        46.6053f   46.6030f   93.2105f   46.6053f
  power     16.9996n    0.         0.         0.         0.         0.     

 subckt             
 element  0:vn7     
  volts      0.     
  current   46.6033f
  power      0.     

     total voltage source power dissipation=   16.9996n       watts




 **** mosfets


 subckt   xnand2_1   xnand2_1   xnand2_1   xnand2_1   xnand2_2   xnand2_2  
 element  1:mp2      1:mp1      1:mn1      1:mn2      2:mp2      2:mp1     
 model    0:pfet     0:pfet     0:nfet     0:nfet     0:pfet     0:pfet    
 region   Linear     Linear     Subth      Subth      Linear     Linear    
  id      -352.3317p -352.3317p  658.6434p  658.6433p -352.3361p -352.3361p
  ibs        0.         0.         0.         0.         0.         0.     
  ibd        0.         0.         0.         0.         0.         0.     
  vgs     -700.0000m -700.0000m  -54.8555m    0.      -700.0000m -700.0000m
  vds       -1.3012u   -1.3012u  645.1432m   54.8555m   -1.3012u   -1.3012u
  vbs        0.         0.       -54.8555m    0.         0.         0.     
  vth     -227.8906m -227.8906m  197.6230m  222.6171m -227.8906m -227.8906m
  vdsat    -32.0938m  -32.0938m   13.9446m   13.9447m  -32.0938m  -32.0938m
  vod     -472.1094m -472.1094m -252.4785m -222.6171m -472.1094m -472.1094m
  beta      13.2499m   13.2499m   20.5058m   20.5058m   13.2499m   13.2499m
  gam eff    0.         0.         0.         0.         0.         0.     
  gm       805.1048p  805.1048p   19.9460n   20.3409n  805.1149p  805.1149p
  gds        2.8716m    2.8716m    1.6776n    2.1784n    2.8716m    2.8716m
  gmb        0.         0.         0.         0.         0.         0.     
  cdtot     20.6419a   20.6419a   13.6538a   13.6538a   20.6419a   20.6419a
  cgtot     48.2719a   48.2719a   27.3084a   27.3093a   48.2719a   48.2719a
  cstot     20.6419a   20.6419a   13.6542a   13.6547a   20.6419a   20.6419a
  cbtot      0.         0.         0.         0.         0.         0.     
  cgs       24.1359a   24.1359a   13.6546a   13.6555a   24.1359a   24.1359a
  cgd       24.1359a   24.1359a   13.6538a   13.6538a   24.1359a   24.1359a



 subckt   xnand2_2   xnand2_2   xnand2_3   xnand2_3   xnand2_3   xnand2_3  
 element  2:mn1      2:mn2      3:mp2      3:mp1      3:mn1      3:mn2     
 model    0:nfet     0:nfet     0:pfet     0:pfet     0:nfet     0:nfet    
 region   Subth      Subth      Subth      Linear     Subth      Linear    
  id       658.6434p  658.6433p -431.9300f   -4.0591n    3.9676n    3.9906n
  ibs        0.         0.         0.         0.         0.         0.     
  ibd        0.         0.         0.         0.         0.         0.     
  vgs      -54.8555m    0.        -1.3012u -700.0000m  -12.0165u  699.9987m
  vds      645.1432m   54.8555m  -14.9911u  -14.9911u  699.9730m   12.0165u
  vbs      -54.8555m    0.         0.         0.       -12.0165u    0.     
  vth      197.6230m  222.6171m -227.8906m -227.8906m  195.1081m  223.2693m
  vdsat     13.9446m   13.9447m  -17.7522m  -32.0936m   13.9451m   26.1802m
  vod     -252.4785m -222.6171m  227.8893m -472.1094m -195.1201m  476.7294m
  beta      20.5058m   20.5058m   13.2499m   13.2499m   20.5058m   20.5058m
  gam eff    0.         0.         0.         0.         0.         0.     
  gm        19.9460n   20.3409n   13.3461p    9.2757n  119.8791n    6.2457n
  gds        1.6776n    2.1784n   28.8085n    2.8715m    9.7031n    3.8426m
  gmb        0.         0.         0.         0.         0.         0.     
  cdtot     13.6538a   13.6538a   13.6544a   20.6419a   13.6537a   20.6602a
  cgtot     27.3084a   27.3093a   27.3094a   48.2718a   27.3118a   48.3269a
  cstot     13.6542a   13.6547a   13.6544a   20.6419a   13.6562a   20.6602a
  cbtot      0.         0.         0.         0.         0.         0.     
  cgs       13.6546a   13.6555a   13.6547a   24.1359a   13.6582a   24.1635a
  cgd       13.6538a   13.6538a   13.6547a   24.1359a   13.6536a   24.1634a



 subckt   xnand2_4   xnand2_4   xnand2_4   xnand2_4   xnand2_5   xnand2_5  
 element  4:mp2      4:mp1      4:mn1      4:mn2      5:mp2      5:mp1     
 model    0:pfet     0:pfet     0:nfet     0:nfet     0:pfet     0:pfet    
 region   Linear     Subth      Subth      Subth      Subth      Subth     
  id        -3.5205n -374.6240f    3.4749n    3.4749n   -3.8243n   -3.8227n
  ibs        0.         0.         0.         0.         0.         0.     
  ibd        0.         0.         0.         0.         0.         0.     
  vgs     -700.0000m   -1.3012u   53.9610m    0.       -14.9911u   -1.3012u
  vds      -13.0018u  -13.0018u   53.9493m  646.0377m -699.9537m -699.9537m
  vbs        0.         0.      -646.0377m    0.         0.         0.     
  vth     -227.8906m -227.8906m  222.6374m  197.5824m -188.8625m -188.8625m
  vdsat    -32.0936m  -17.7522m   13.9457m   13.9451m  -17.7531m  -17.7531m
  vod     -472.1094m  227.8893m -168.6764m -197.5824m  188.8475m  188.8612m
  beta      13.2499m   13.2499m   20.5058m   20.5058m   13.2499m   13.2499m
  gam eff    0.         0.         0.         0.         0.         0.     
  gm         8.0448n   11.5754p  107.2751n  105.1974n  115.5475n  115.4997n
  gds        2.8715m   28.8103n   11.4369n    8.6405n   11.4693n   11.4646n
  gmb        0.         0.         0.         0.         0.         0.     
  cdtot     20.6419a   13.6544a   13.6538a   13.6537a   13.6537a   13.6537a
  cgtot     48.2718a   27.3094a   27.3163a   27.3115a   27.3125a   27.3125a
  cstot     20.6419a   13.6544a   13.6585a   13.6560a   13.6566a   13.6566a
  cbtot      0.         0.         0.         0.         0.         0.     
  cgs       24.1359a   13.6547a   13.6626a   13.6579a   13.6590a   13.6590a
  cgd       24.1359a   13.6547a   13.6537a   13.6536a   13.6535a   13.6535a



 subckt   xnand2_5   xnand2_5   xnand2_6   xnand2_6   xnand2_6   xnand2_6  
 element  5:mn1      5:mn2      6:mp2      6:mp1      6:mn1      6:mn2     
 model    0:nfet     0:nfet     0:pfet     0:pfet     0:nfet     0:nfet    
 region   Linear     Linear     Subth      Subth      Linear     Linear    
  id         7.6700n    7.7159n   -3.8240n   -3.8243n    7.6713n    7.7173n
  ibs        0.         0.         0.         0.         0.         0.     
  ibd        0.         0.         0.         0.         0.         0.     
  vgs      699.9755m  699.9850m  -13.0018u  -14.9911u  699.9618m  699.9870m
  vds       23.0960u   23.2344u -699.9537m -699.9537m   23.1001u   23.2384u
  vbs      -23.2344u    0.         0.         0.       -23.2384u    0.     
  vth      223.2693m  223.2693m -188.8625m -188.8625m  223.2693m  223.2693m
  vdsat     26.1790m   26.1794m  -17.7531m  -17.7531m   26.1784m   26.1795m
  vod      476.7062m  476.7157m  188.8495m  188.8475m  476.6925m  476.7177m
  beta      20.5058m   20.5058m   13.2499m   13.2499m   20.5058m   20.5058m
  gam eff    0.         0.         0.         0.         0.         0.     
  gm        12.0065n   12.0777n  115.5405n  115.5475n   12.0096n   12.0796n
  gds        3.8424m    3.8424m   11.4686n   11.4693n    3.8423m    3.8424m
  gmb        0.         0.         0.         0.         0.         0.     
  cdtot     20.6601a   20.6601a   13.6537a   13.6537a   20.6600a   20.6601a
  cgtot     48.3265a   48.3267a   27.3125a   27.3125a   48.3264a   48.3267a
  cstot     20.6601a   20.6602a   13.6566a   13.6566a   20.6601a   20.6602a
  cbtot      0.         0.         0.         0.         0.         0.     
  cgs       24.1633a   24.1634a   13.6590a   13.6590a   24.1632a   24.1634a
  cgd       24.1632a   24.1633a   13.6535a   13.6535a   24.1631a   24.1633a



 ******
 * eda yan

 ****** transient analysis tnom=  25.000 temp=  25.000 ******
x

 time         voltage    voltage   
             n22        n23        
    0.         46.3304u   46.3385u 
  100.00000f   46.3304u   46.3385u 
  200.00000f   46.3304u   46.3385u 
  300.00000f   46.3304u   46.3385u 
  400.00000f   46.3304u   46.3385u 
  500.00000f   46.3304u   46.3385u 
  600.00000f   46.3304u   46.3385u 
  700.00000f   46.3304u   46.3385u 
  800.00000f   46.3304u   46.3385u 
  900.00000f   46.3304u   46.3385u 
    1.00000p   46.3304u   46.3385u 
    1.10000p  237.0861u  193.4149u 
    1.20000p  427.8419u  340.4912u 
    1.30000p  557.3020u  449.4874u 
    1.40000p  682.0292u  555.5431u 
    1.50000p  764.4640u  630.4260u 
    1.60000p  743.3449u  628.9812u 
    1.70000p  722.2257u  627.5363u 
    1.80000p  701.1066u  626.0915u 
    1.90000p  679.9874u  624.6466u 
    2.00000p  658.8682u  623.2018u 
    2.10000p  637.7491u  621.7569u 
    2.20000p  611.9382u  609.7461u 
    2.30000p  578.3621u  580.2475u 
    2.40000p  544.7860u  550.7488u 
    2.50000p  511.2098u  521.2501u 
    2.60000p  477.6337u  491.7514u 
    2.70000p  444.0575u  462.2528u 
    2.80000p  410.4814u  432.7541u 
    2.90000p  376.9052u  403.2554u 
    3.00000p  343.3291u  373.7568u 
    3.10000p  309.7530u  344.2581u 
    3.20000p  276.1768u  314.7594u 
    3.30000p  242.6007u  285.2607u 
    3.40000p  209.0245u  255.7621u 
    3.50000p  175.4484u  226.2634u 
    3.60000p  141.8723u  196.7647u 
    3.70000p  129.1605u  182.3534u 
    3.80000p  125.6697u  174.6099u 
    3.90000p  122.1789u  166.8663u 
    4.00000p  118.6881u  159.1228u 
    4.10000p  115.1973u  151.3793u 
    4.20000p  111.7065u  143.6358u 
    4.30000p  108.2157u  135.8922u 
    4.40000p  104.7249u  128.1487u 
    4.50000p  101.2340u  120.4052u 
    4.60000p   97.7432u  112.6617u 
    4.70000p   94.2524u  104.9181u 
    4.80000p   90.7616u   97.1746u 
    4.90000p   87.2708u   89.4311u 
    5.00000p   83.7800u   81.6876u 
    5.10000p   80.2892u   73.9440u 
    5.20000p   76.7984u   66.2005u 
    5.30000p   73.3076u   58.4570u 
    5.40000p   69.8168u   50.7135u 
    5.50000p   65.1723u   44.2752u 
    5.60000p   59.3264u   39.1961u 
    5.70000p   53.4805u   34.1171u 
    5.80000p   47.6346u   29.0381u 
    5.90000p   41.7887u   23.9591u 
    6.00000p   35.9428u   18.8801u 
    6.10000p   30.0970u   13.8011u 
    6.20000p   24.2511u    8.7221u 
    6.30000p   18.4052u    3.6431u 
    6.40000p   12.5593u   -1.4359u 
    6.50000p    9.4882u   -6.0246u 
    6.60000p    9.9006u   -9.9979u 
    6.70000p   10.3129u  -13.9712u 
    6.80000p   10.7253u  -17.9445u 
    6.90000p   11.1376u  -21.9178u 
    7.00000p   11.5500u  -25.8910u 
    7.10000p   11.9623u  -29.8643u 
    7.20000p   12.3747u  -33.8376u 
    7.30000p    9.7532u  -41.5053u 
    7.40000p    2.6970u  -54.5731u 
    7.50000p   -4.3592u  -67.6410u 
    7.60000p  -11.4153u  -80.7088u 
    7.70000p  -18.4715u  -93.7766u 
    7.80000p  -25.5277u -106.8445u 
    7.90000p  -32.5839u -119.9123u 
    8.00000p  -39.6400u -132.9802u 
    8.10000p  -46.6962u -146.0480u 
    8.20000p  -53.7524u -159.1158u 
    8.30000p  -60.8086u -172.1837u 
    8.40000p  -67.8647u -185.2515u 
    8.50000p  -74.9209u -198.3194u 
    8.60000p  -81.9771u -211.3872u 
    8.70000p  -89.0333u -224.4550u 
    8.80000p  -96.0894u -237.5229u 
    8.90000p -103.1456u -250.5907u 
    9.00000p -110.2018u -263.6585u 
    9.10000p -117.2580u -276.7264u 
    9.20000p -124.3141u -289.7942u 
    9.30000p -131.3703u -302.8621u 
    9.40000p -138.4265u -315.9299u 
    9.50000p -145.4827u -328.9977u 
    9.60000p -152.5388u -342.0656u 
    9.70000p -159.5950u -355.1334u 
    9.80000p -166.6512u -368.2013u 
    9.90000p -178.6663u -394.3189u 
   10.00000p -192.9378u -426.3744u 
   10.10000p -207.2094u -458.4300u 
   10.20000p -221.4809u -490.4855u 
   10.30000p -235.7525u -522.5411u 
   10.40000p -250.0240u -554.5967u 
   10.50000p -264.2956u -586.6522u 
   10.60000p -278.5671u -618.7078u 
   10.70000p -292.8387u -650.7633u 
   10.80000p -307.1102u -682.8189u 
   10.90000p -321.3818u -714.8745u 
   11.00000p -335.6533u -746.9300u 
   11.10000p -349.9249u -778.9856u 
   11.20000p -364.1964u -811.0411u 
   11.30000p -378.4680u -843.0967u 
   11.40000p -392.7395u -875.1522u 
   11.50000p -407.0111u -907.2078u 
   11.60000p -421.2826u -939.2634u 
   11.70000p -435.5542u -971.3189u 
   11.80000p -449.8257u   -1.0034m 
   11.90000p -470.7504u   -1.0606m 
   12.00000p -496.1780u   -1.1348m 
   12.10000p -521.6056u   -1.2091m 
   12.20000p -547.0333u   -1.2833m 
   12.30000p -572.4609u   -1.3575m 
   12.40000p -597.8885u   -1.4318m 
   12.50000p -625.7011u   -1.5298m 
   12.60000p -656.1657u   -1.6544m 
   12.70000p -686.6302u   -1.7790m 
   12.80000p -717.0948u   -1.9036m 
   12.90000p -747.5594u   -2.0282m 
   13.00000p -810.6387u   -2.1587m 
   13.10000p -897.8046u   -2.2936m 
   13.20000p -984.9704u   -2.4286m 
   13.30000p   -1.0721m   -2.5635m 
   13.40000p   -1.1593m   -2.6984m 
   13.50000p   -1.2465m   -2.8333m 
   13.60000p   -1.3336m   -2.9682m 
   13.70000p   -1.4208m   -3.1032m 
   13.80000p   -1.5080m   -3.2381m 
   13.90000p   -1.5951m   -3.3730m 
   14.00000p   -1.6823m   -3.5079m 
   14.10000p   -1.7695m   -3.6429m 
   14.20000p   -1.8770m   -3.7794m 
   14.30000p   -2.0061m   -3.9177m 
   14.40000p   -2.1352m   -4.0559m 
   14.50000p   -2.2642m   -4.1942m 
   14.60000p   -2.3933m   -4.3324m 
   14.70000p   -2.5224m   -4.4707m 
   14.80000p   -2.6515m   -4.6090m 
   14.90000p   -2.7805m   -4.7472m 
   15.00000p   -2.9096m   -4.8855m 
   15.10000p   -3.0387m   -5.0238m 
   15.20000p   -3.1678m   -5.1620m 
   15.30000p   -3.2968m   -5.3003m 
   15.40000p   -3.4646m   -5.6231m 
   15.50000p   -3.6612m   -6.0828m 
   15.60000p   -3.8577m   -6.5425m 
   15.70000p   -4.0542m   -7.0021m 
   15.80000p   -4.2507m   -7.4618m 
   15.90000p   -4.4472m   -7.9215m 
   16.00000p   -4.6437m   -8.3811m 
   16.10000p   -4.8402m   -8.8408m 
   16.20000p   -5.0367m   -9.3005m 
   16.30000p   -5.2333m   -9.7601m 
   16.40000p   -5.4298m  -10.2198m 
   16.50000p   -5.6263m  -10.6795m 
   16.60000p   -5.8228m  -11.1391m 
   16.70000p   -6.0193m  -11.5988m 
   16.80000p   -6.2446m  -12.0511m 
   16.90000p   -6.8579m  -12.4037m 
   17.00000p   -7.4712m  -12.7563m 
   17.10000p   -8.0845m  -13.1089m 
   17.20000p   -8.6978m  -13.4615m 
   17.30000p   -9.3111m  -13.8141m 
   17.40000p   -9.9244m  -14.1667m 
   17.50000p  -10.5377m  -14.5193m 
   17.60000p  -11.1510m  -14.8719m 
   17.70000p  -11.7643m  -15.2245m 
   17.80000p  -12.3776m  -15.5771m 
   17.90000p  -12.9909m  -15.9297m 
   18.00000p  -13.6042m  -16.2824m 
   18.10000p  -14.2175m  -16.6350m 
   18.20000p  -14.8308m  -16.9876m 
   18.30000p  -15.4441m  -17.3402m 
   18.40000p  -16.0574m  -17.6928m 
   18.50000p  -16.0607m  -13.8932m 
   18.60000p  -15.9455m   -9.2871m 
   18.70000p  -15.8303m   -4.6810m 
   18.80000p  -15.7151m  -74.8455u 
   18.90000p  -15.5999m    4.5313m 
   19.00000p  -15.4848m    9.1374m 
   19.10000p  -15.3696m   13.7435m 
   19.20000p  -15.2544m   18.3497m 
   19.30000p  -15.1392m   22.9558m 
   19.40000p  -15.0240m   27.5619m 
   19.50000p  -14.9088m   32.1681m 
   19.60000p  -14.7936m   36.7742m 
   19.70000p  -14.6785m   41.3803m 
   19.80000p  -14.5633m   45.9864m 
   19.90000p  -14.4481m   50.5926m 
   20.00000p  -14.3329m   55.1987m 
   20.10000p  -12.3046m   64.2084m 
   20.20000p   -8.9027m   76.3795m 
   20.30000p   -5.5008m   88.5506m 
   20.40000p   -2.0990m  100.7218m 
   20.50000p    1.3029m  112.8929m 
   20.60000p    4.7047m  125.0640m 
   20.70000p    8.1066m  137.2351m 
   20.80000p   12.1899m  150.9746m 
   20.90000p   17.6184m  167.8106m 
   21.00000p   23.0470m  184.6466m 
   21.10000p   28.4756m  201.4827m 
   21.20000p   33.9041m  218.3187m 
   21.30000p   39.3327m  235.1547m 
   21.40000p   44.7612m  251.9907m 
   21.50000p   50.9362m  268.5659m 
   21.60000p   64.6291m  282.5150m 
   21.70000p   78.3221m  296.4640m 
   21.80000p   92.0150m  310.4131m 
   21.90000p  105.7079m  324.3621m 
   22.00000p  119.4008m  338.3112m 
   22.10000p  133.0937m  352.2602m 
   22.20000p  146.7866m  366.2092m 
   22.30000p  160.4795m  380.1583m 
   22.40000p  174.1724m  394.1073m 
   22.50000p  187.8653m  408.0564m 
   22.60000p  206.1873m  414.3316m 
   22.70000p  227.1160m  416.2855m 
   22.80000p  248.0447m  418.2394m 
   22.90000p  268.9734m  420.1932m 
   23.00000p  289.9022m  422.1471m 
   23.10000p  310.8309m  424.1010m 
   23.20000p  335.7211m  419.4877m 
   23.30000p  361.8602m  412.8041m 
   23.40000p  387.9992m  406.1206m 
   23.50000p  414.1383m  399.4371m 
   23.60000p  440.2773m  392.7535m 
   23.70000p  466.4164m  386.0700m 
   23.80000p  487.0471m  372.7431m 
   23.90000p  506.9332m  358.5181m 
   24.00000p  526.8192m  344.2930m 
   24.10000p  546.7053m  330.0679m 
   24.20000p  565.7720m  313.1791m 
   24.30000p  583.6475m  292.4170m 
   24.40000p  601.5229m  271.6548m 
   24.50000p  619.3984m  250.8927m 
   24.60000p  637.2738m  230.1305m 
   24.70000p  646.9304m  214.0802m 
   24.80000p  656.0068m  198.3625m 
   24.90000p  665.0832m  182.6448m 
   25.00000p  674.1596m  166.9271m 
   25.10000p  678.7305m  152.0255m 
   25.20000p  681.5255m  137.4455m 
   25.30000p  684.3205m  122.8656m 
   25.40000p  687.1156m  108.2857m 
   25.50000p  689.0079m   97.6241m 
   25.60000p  689.9992m   90.8730m 
   25.70000p  690.9906m   84.1219m 
   25.80000p  691.9820m   77.3708m 
   25.90000p  692.9734m   70.6197m 
   26.00000p  693.9648m   63.8686m 
   26.10000p  694.9562m   57.1175m 
   26.20000p  695.9476m   50.3663m 
   26.30000p  696.3852m   46.5222m 
   26.40000p  696.6935m   43.3571m 
   26.50000p  697.0018m   40.1921m 
   26.60000p  697.3101m   37.0271m 
   26.70000p  697.6185m   33.8621m 
   26.80000p  697.9268m   30.6971m 
   26.90000p  698.2351m   27.5321m 
   27.00000p  698.5434m   24.3670m 
   27.10000p  698.8517m   21.2020m 
   27.20000p  698.9587m   19.8681m 
   27.30000p  699.0484m   18.6918m 
   27.40000p  699.1381m   17.5154m 
   27.50000p  699.2278m   16.3391m 
   27.60000p  699.3175m   15.1627m 
   27.70000p  699.4072m   13.9864m 
   27.80000p  699.4969m   12.8100m 
   27.90000p  699.5866m   11.6337m 
   28.00000p  699.6763m   10.4573m 
   28.10000p  699.7660m    9.2810m 
   28.20000p  699.8464m    8.1876m 
   28.30000p  699.8566m    7.7163m 
   28.40000p  699.8668m    7.2450m 
   28.50000p  699.8770m    6.7737m 
   28.60000p  699.8872m    6.3023m 
   28.70000p  699.8974m    5.8310m 
   28.80000p  699.9076m    5.3597m 
   28.90000p  699.9178m    4.8884m 
   29.00000p  699.9281m    4.4171m 
   29.10000p  699.9383m    3.9457m 
   29.20000p  699.9485m    3.4744m 
   29.30000p  699.9587m    3.0031m 
   29.40000p  699.9689m    2.5318m 
   29.50000p  699.9778m    2.1186m 
   29.60000p  699.9796m    2.0384m 
   29.70000p  699.9813m    1.9582m 
   29.80000p  699.9830m    1.8780m 
   29.90000p  699.9847m    1.7978m 
   30.00000p  699.9864m    1.7176m 
   30.10000p  699.9881m    1.6374m 
   30.20000p  699.9898m    1.5572m 
   30.30000p  699.9915m    1.4769m 
   30.40000p  699.9932m    1.3967m 
   30.50000p  699.9949m    1.3165m 
   30.60000p  699.9967m    1.2363m 
   30.70000p  699.9984m    1.1561m 
   30.80000p  700.0001m    1.0759m 
   30.90000p  700.0018m  995.6981u 
   31.00000p  700.0035m  915.4901u 
   31.10000p  699.8235m  676.4160u 
   31.20000p  699.6434m  437.3420u 
   31.30000p  699.4913m  246.6108u 
   31.40000p  699.3864m  137.7438u 
   31.50000p  699.2815m   28.8767u 
   31.60000p  699.1766m  -79.9903u 
   31.70000p  699.1054m -159.5352u 
   31.80000p  699.1408m -146.2964u 
   31.90000p  699.1763m -133.0577u 
   32.00000p  699.2118m -119.8190u 
   32.10000p  699.2472m -106.5802u 
   32.20000p  699.2827m  -93.3415u 
   32.30000p  699.3182m  -80.1027u 
   32.40000p  699.3537m  -66.8640u 
   32.50000p  699.3891m  -53.6253u 
   32.60000p  699.4246m  -40.3865u 
   32.70000p  699.4601m  -27.1478u 
   32.80000p  699.4955m  -13.9090u 
   32.90000p  699.5305m   -1.0179u 
   33.00000p  699.5598m    8.2549u 
   33.10000p  699.5890m   17.5277u 
   33.20000p  699.6183m   26.8006u 
   33.30000p  699.6476m   36.0734u 
   33.40000p  699.6769m   45.3463u 
   33.50000p  699.7061m   54.6191u 
   33.60000p  699.7354m   63.8920u 
   33.70000p  699.7647m   73.1648u 
   33.80000p  699.7940m   82.4377u 
   33.90000p  699.8232m   91.7105u 
   34.00000p  699.8525m  100.9834u 
   34.10000p  699.8818m  110.2562u 
   34.20000p  699.9111m  119.5291u 
   34.30000p  699.9403m  128.8019u 
   34.40000p  699.9696m  138.0747u 
   34.50000p  699.9989m  147.3476u 
   34.60000p  700.0282m  156.6204u 
   34.70000p  700.0397m  159.1367u 
   34.80000p  700.0363m  155.9882u 
   34.90000p  700.0330m  152.8398u 
   35.00000p  700.0297m  149.6913u 
   35.10000p  700.0263m  146.5429u 
   35.20000p  700.0230m  143.3944u 
   35.30000p  700.0196m  140.2460u 
   35.40000p  700.0163m  137.0975u 
   35.50000p  700.0129m  133.9491u 
   35.60000p  700.0096m  130.8006u 
   35.70000p  700.0062m  127.6521u 
   35.80000p  700.0029m  124.5037u 
   35.90000p  699.9996m  121.3552u 
   36.00000p  699.9962m  118.2068u 
   36.10000p  699.9929m  115.0583u 
   36.20000p  699.9895m  111.9099u 
   36.30000p  699.9862m  108.7614u 
   36.40000p  699.9828m  105.6130u 
   36.50000p  699.9795m  102.4645u 
   36.60000p  699.9761m   99.3161u 
   36.70000p  699.9728m   96.1676u 
   36.80000p  699.9695m   93.0192u 
   36.90000p  699.9661m   89.8707u 
   37.00000p  699.9630m   86.8258u 
   37.10000p  699.9643m   85.7905u 
   37.20000p  699.9656m   84.7552u 
   37.30000p  699.9670m   83.7199u 
   37.40000p  699.9683m   82.6846u 
   37.50000p  699.9696m   81.6493u 
   37.60000p  699.9709m   80.6140u 
   37.70000p  699.9722m   79.5787u 
   37.80000p  699.9736m   78.5434u 
   37.90000p  699.9749m   77.5081u 
   38.00000p  699.9762m   76.4728u 
   38.10000p  699.9775m   75.4375u 
   38.20000p  699.9789m   74.4022u 
   38.30000p  699.9802m   73.3669u 
   38.40000p  699.9815m   72.3316u 
   38.50000p  699.9828m   71.2963u 
   38.60000p  699.9841m   70.2609u 
   38.70000p  699.9855m   69.2256u 
   38.80000p  699.9868m   68.1903u 
   38.90000p  699.9881m   67.1550u 
   39.00000p  699.9894m   66.1197u 
   39.10000p  699.9907m   65.0844u 
   39.20000p  699.9921m   64.0491u 
   39.30000p  699.9934m   63.0138u 
   39.40000p  699.9947m   61.9785u 
   39.50000p  699.9960m   60.9432u 
   39.60000p  699.9974m   59.9079u 
   39.70000p  699.9987m   58.8726u 
   39.80000p  700.0000m   57.8373u 
   39.90000p  700.0013m   56.8020u 
   40.00000p  700.0026m   55.7667u 
   40.10000p  700.0040m   54.7314u 
   40.20000p  700.0053m   53.6961u 
   40.30000p  700.0062m   52.8985u 
   40.40000p  700.0055m   52.9447u 
   40.50000p  700.0048m   52.9910u 
   40.60000p  700.0042m   53.0372u 
   40.70000p  700.0035m   53.0835u 
   40.80000p  700.0028m   53.1297u 
   40.90000p  700.0021m   53.1759u 
   41.00000p  700.0015m   53.2222u 
   41.10000p  700.0008m   53.2684u 
   41.20000p  700.0001m   53.3147u 
   41.30000p  699.9994m   53.3609u 
   41.40000p  699.9988m   53.4072u 
   41.50000p  699.9981m   53.4534u 
   41.60000p  699.9974m   53.4997u 
   41.70000p  699.9968m   53.5459u 
   41.80000p  699.9961m   53.5922u 
   41.90000p  699.9954m   53.6384u 
   42.00000p  699.9947m   53.6846u 
   42.10000p  699.9941m   53.7309u 
   42.20000p  699.9934m   53.7771u 
   42.30000p  699.9927m   53.8234u 
   42.40000p  699.9921m   53.8696u 
   42.50000p  699.9914m   53.9159u 
   42.60000p  699.9907m   53.9621u 
   42.70000p  699.9900m   54.0084u 
   42.80000p  699.9894m   54.0546u 
   42.90000p  699.9887m   54.1008u 
   43.00000p  699.9880m   54.1471u 
   43.10000p  699.9874m   54.1933u 
   43.20000p  699.9867m   54.2396u 
   43.30000p  699.9860m   54.2858u 
   43.40000p  699.9853m   54.3321u 
   43.50000p  699.9847m   54.3783u 
   43.60000p  699.9840m   54.4246u 
   43.70000p  699.9833m   54.4708u 
   43.80000p  699.9827m   54.5171u 
   43.90000p  699.9820m   54.5633u 
   44.00000p  699.9813m   54.6095u 
   44.10000p  699.9806m   54.6558u 
   44.20000p  699.9800m   54.7020u 
   44.30000p  699.9793m   54.7483u 
   44.40000p  699.9786m   54.7945u 
   44.50000p  699.9779m   54.8408u 
   44.60000p  699.9773m   54.8870u 
   44.70000p  699.9766m   54.9333u 
   44.80000p  699.9759m   54.9795u 
   44.90000p  699.9753m   55.0257u 
   45.00000p  699.9746m   55.0720u 
   45.10000p  699.9739m   55.1182u 
   45.20000p  699.9732m   55.1645u 
   45.30000p  699.9726m   55.2107u 
   45.40000p  699.9719m   55.2570u 
   45.50000p  699.9712m   55.3032u 
   45.60000p  699.9706m   55.3495u 
   45.70000p  699.9699m   55.3957u 
   45.80000p  699.9701m   55.2699u 
   45.90000p  699.9705m   55.0932u 
   46.00000p  699.9709m   54.9165u 
   46.10000p  699.9713m   54.7397u 
   46.20000p  699.9717m   54.5630u 
   46.30000p  699.9721m   54.3863u 
   46.40000p  699.9725m   54.2095u 
   46.50000p  699.9729m   54.0328u 
   46.60000p  699.9734m   53.8560u 
   46.70000p  699.9738m   53.6793u 
   46.80000p  699.9742m   53.5026u 
   46.90000p  699.9746m   53.3258u 
   47.00000p  699.9750m   53.1491u 
   47.10000p  699.9754m   52.9723u 
   47.20000p  699.9758m   52.7956u 
   47.30000p  699.9763m   52.6189u 
   47.40000p  699.9767m   52.4421u 
   47.50000p  699.9771m   52.2654u 
   47.60000p  699.9775m   52.0887u 
   47.70000p  699.9779m   51.9119u 
   47.80000p  699.9783m   51.7352u 
   47.90000p  699.9787m   51.5584u 
   48.00000p  699.9792m   51.3817u 
   48.10000p  699.9796m   51.2050u 
   48.20000p  699.9800m   51.0282u 
   48.30000p  699.9804m   50.8515u 
   48.40000p  699.9808m   50.6747u 
   48.50000p  699.9812m   50.4980u 
   48.60000p  699.9816m   50.3213u 
   48.70000p  699.9821m   50.1445u 
   48.80000p  699.9825m   49.9678u 
   48.90000p  699.9829m   49.7910u 
   49.00000p  699.9833m   49.6143u 
   49.10000p  699.9837m   49.4376u 
   49.20000p  699.9841m   49.2608u 
   49.30000p  699.9845m   49.0841u 
   49.40000p  699.9849m   48.9074u 
   49.50000p  699.9854m   48.7306u 
   49.60000p  699.9858m   48.5539u 
   49.70000p  699.9862m   48.3771u 
   49.80000p  699.9866m   48.2004u 
   49.90000p  699.9870m   48.0237u 
   50.00000p  699.9874m   47.8469u 
   50.10000p  699.9878m   47.6702u 
   50.20000p  699.9883m   47.4934u 
   50.30000p  699.9887m   47.3167u 
   50.40000p  699.9891m   47.1400u 
   50.50000p  699.9895m   46.9632u 
   50.60000p  699.9899m   46.7865u 
   50.70000p  699.9903m   46.6098u 
   50.80000p  699.9907m   46.4330u 
   50.90000p  699.9912m   46.2563u 
   51.00000p  699.9916m   46.0795u 
   51.10000p  699.9920m   45.9028u 
   51.20000p  699.9924m   45.7261u 
   51.30000p  699.9928m   45.5493u 
   51.40000p  699.9932m   45.3726u 
   51.50000p  699.9936m   45.1958u 
   51.60000p  699.9941m   45.0191u 
   51.70000p  699.9945m   44.8424u 
   51.80000p  699.9949m   44.6656u 
   51.90000p  699.9953m   44.4889u 
   52.00000p  699.9957m   44.3122u 
   52.10000p  699.9961m   44.1354u 
   52.20000p  699.9965m   43.9587u 
   52.30000p  699.9970m   43.7819u 
   52.40000p  699.9974m   43.6052u 
   52.50000p  699.9978m   43.4285u 
   52.60000p  699.9982m   43.2517u 
   52.70000p  699.9986m   43.0750u 
   52.80000p  699.9990m   42.8982u 
   52.90000p  699.9994m   42.7215u 
   53.00000p  699.9998m   42.5448u 
   53.10000p  699.9997m   42.6113u 
   53.20000p  699.9994m   42.7249u 
   53.30000p  699.9991m   42.8385u 
   53.40000p  699.9988m   42.9520u 
   53.50000p  699.9985m   43.0656u 
   53.60000p  699.9982m   43.1792u 
   53.70000p  699.9979m   43.2927u 
   53.80000p  699.9976m   43.4063u 
   53.90000p  699.9973m   43.5199u 
   54.00000p  699.9970m   43.6334u 
   54.10000p  699.9967m   43.7470u 
   54.20000p  699.9964m   43.8606u 
   54.30000p  699.9961m   43.9741u 
   54.40000p  699.9958m   44.0877u 
   54.50000p  699.9956m   44.2013u 
   54.60000p  699.9953m   44.3148u 
   54.70000p  699.9950m   44.4284u 
   54.80000p  699.9947m   44.5420u 
   54.90000p  699.9944m   44.6555u 
   55.00000p  699.9941m   44.7691u 
   55.10000p  699.9938m   44.8827u 
   55.20000p  699.9935m   44.9962u 
   55.30000p  699.9932m   45.1098u 
   55.40000p  699.9929m   45.2234u 
   55.50000p  699.9926m   45.3369u 
   55.60000p  699.9923m   45.4505u 
   55.70000p  699.9920m   45.5641u 
   55.80000p  699.9917m   45.6776u 
   55.90000p  699.9914m   45.7912u 
   56.00000p  699.9911m   45.9048u 
   56.10000p  699.9908m   46.0183u 
   56.20000p  699.9906m   46.1319u 
   56.30000p  699.9903m   46.2455u 
   56.40000p  699.9900m   46.3590u 
   56.50000p  699.9897m   46.4726u 
   56.60000p  699.9894m   46.5862u 
   56.70000p  699.9891m   46.6997u 
   56.80000p  699.9888m   46.8133u 
   56.90000p  699.9885m   46.9269u 
   57.00000p  699.9882m   47.0404u 
   57.10000p  699.9879m   47.1540u 
   57.20000p  699.9876m   47.2676u 
   57.30000p  699.9873m   47.3811u 
   57.40000p  699.9870m   47.4947u 
   57.50000p  699.9867m   47.6083u 
   57.60000p  699.9864m   47.7218u 
   57.70000p  699.9861m   47.8354u 
   57.80000p  699.9858m   47.9490u 
   57.90000p  699.9855m   48.0625u 
   58.00000p  699.9853m   48.1761u 
   58.10000p  699.9850m   48.2897u 
   58.20000p  699.9847m   48.4032u 
   58.30000p  699.9844m   48.5168u 
   58.40000p  699.9841m   48.6304u 
   58.50000p  699.9838m   48.7439u 
   58.60000p  699.9835m   48.8575u 
   58.70000p  699.9832m   48.9711u 
   58.80000p  699.9829m   49.0846u 
   58.90000p  699.9826m   49.1982u 
   59.00000p  699.9823m   49.3118u 
   59.10000p  699.9820m   49.4253u 
   59.20000p  699.9817m   49.5389u 
   59.30000p  699.9814m   49.6525u 
   59.40000p  699.9811m   49.7660u 
   59.50000p  699.9808m   49.8796u 
   59.60000p  699.9805m   49.9932u 
   59.70000p  699.9803m   50.1067u 
   59.80000p  699.9800m   50.2203u 
   59.90000p  699.9797m   50.3339u 
   60.00000p  699.9794m   50.4474u 
   60.10000p  699.9791m   50.5610u 
   60.20000p  699.9788m   50.6746u 
   60.30000p  699.9785m   50.7881u 
   60.40000p  699.9782m   50.9017u 
   60.50000p  699.9779m   51.0153u 
   60.60000p  699.9776m   51.1288u 
   60.70000p  699.9773m   51.2424u 
   60.80000p  699.9770m   51.3560u 
   60.90000p  699.9767m   51.4695u 
   61.00000p  699.9764m   51.5831u 
   61.10000p  699.9761m   51.6967u 
   61.20000p  699.9758m   51.8102u 
   61.30000p  699.9755m   51.9238u 
   61.40000p  699.9753m   52.0374u 
   61.50000p  699.9750m   52.1509u 
   61.60000p  699.9747m   52.2645u 
   61.70000p  699.9744m   52.3781u 
   61.80000p  699.9741m   52.4916u 
   61.90000p  699.9738m   52.6052u 
   62.00000p  699.9735m   52.7188u 
   62.10000p  699.9732m   52.8323u 
   62.20000p  699.9729m   52.9459u 
   62.30000p  699.9726m   53.0595u 
   62.40000p  699.9724m   53.1479u 
   62.50000p  699.9726m   53.0452u 
   62.60000p  699.9728m   52.9425u 
   62.70000p  699.9730m   52.8398u 
   62.80000p  699.9732m   52.7372u 
   62.90000p  699.9734m   52.6345u 
   63.00000p  699.9736m   52.5318u 
   63.10000p  699.9738m   52.4291u 
   63.20000p  699.9740m   52.3264u 
   63.30000p  699.9743m   52.2237u 
   63.40000p  699.9745m   52.1210u 
   63.50000p  699.9747m   52.0184u 
   63.60000p  699.9749m   51.9157u 
   63.70000p  699.9751m   51.8130u 
   63.80000p  699.9753m   51.7103u 
   63.90000p  699.9755m   51.6076u 
   64.00000p  699.9757m   51.5049u 
   64.10000p  699.9759m   51.4023u 
   64.20000p  699.9761m   51.2996u 
   64.30000p  699.9763m   51.1969u 
   64.40000p  699.9766m   51.0942u 
   64.50000p  699.9768m   50.9915u 
   64.60000p  699.9770m   50.8888u 
   64.70000p  699.9772m   50.7862u 
   64.80000p  699.9774m   50.6835u 
   64.90000p  699.9776m   50.5808u 
   65.00000p  699.9778m   50.4781u 
   65.10000p  699.9780m   50.3754u 
   65.20000p  699.9782m   50.2727u 
   65.30000p  699.9784m   50.1700u 
   65.40000p  699.9786m   50.0674u 
   65.50000p  699.9788m   49.9647u 
   65.60000p  699.9791m   49.8620u 
   65.70000p  699.9793m   49.7593u 
   65.80000p  699.9795m   49.6566u 
   65.90000p  699.9797m   49.5539u 
   66.00000p  699.9799m   49.4513u 
   66.10000p  699.9801m   49.3486u 
   66.20000p  699.9803m   49.2459u 
   66.30000p  699.9805m   49.1432u 
   66.40000p  699.9807m   49.0405u 
   66.50000p  699.9809m   48.9378u 
   66.60000p  699.9811m   48.8351u 
   66.70000p  699.9814m   48.7325u 
   66.80000p  699.9816m   48.6298u 
   66.90000p  699.9818m   48.5271u 
   67.00000p  699.9820m   48.4244u 
   67.10000p  699.9822m   48.3217u 
   67.20000p  699.9824m   48.2190u 
   67.30000p  699.9826m   48.1164u 
   67.40000p  699.9828m   48.0137u 
   67.50000p  699.9830m   47.9110u 
   67.60000p  699.9832m   47.8083u 
   67.70000p  699.9834m   47.7056u 
   67.80000p  699.9837m   47.6029u 
   67.90000p  699.9839m   47.5003u 
   68.00000p  699.9841m   47.3976u 
   68.10000p  699.9843m   47.2949u 
   68.20000p  699.9845m   47.1922u 
   68.30000p  699.9847m   47.0895u 
   68.40000p  699.9849m   46.9868u 
   68.50000p  699.9851m   46.8841u 
   68.60000p  699.9853m   46.7815u 
   68.70000p  699.9855m   46.6788u 
   68.80000p  699.9857m   46.5761u 
   68.90000p  699.9860m   46.4734u 
   69.00000p  699.9862m   46.3707u 
   69.10000p  699.9864m   46.2680u 
   69.20000p  699.9866m   46.1654u 
   69.30000p  699.9868m   46.0627u 
   69.40000p  699.9870m   45.9600u 
   69.50000p  699.9872m   45.8573u 
   69.60000p  699.9874m   45.7546u 
   69.70000p  699.9876m   45.6519u 
   69.80000p  699.9878m   45.5493u 
   69.90000p  699.9880m   45.4466u 
   70.00000p  699.9882m   45.3439u 
   70.10000p  699.9885m   45.2412u 
   70.20000p  699.9887m   45.1385u 
   70.30000p  699.9889m   45.0358u 
   70.40000p  699.9891m   44.9331u 
   70.50000p  699.9893m   44.8305u 
   70.60000p  699.9895m   44.7278u 
   70.70000p  699.9897m   44.6251u 
   70.80000p  699.9899m   44.5224u 
   70.90000p  699.9901m   44.4197u 
   71.00000p  699.9903m   44.3170u 
   71.10000p  699.9905m   44.2144u 
   71.20000p  699.9908m   44.1117u 
   71.30000p  699.9910m   44.0090u 
   71.40000p  699.9912m   43.9063u 
   71.50000p  699.9914m   43.8036u 
   71.60000p  699.9916m   43.7009u 
   71.70000p  699.9918m   43.5982u 
   71.80000p  699.9920m   43.4956u 
   71.90000p  699.9922m   43.3929u 
   72.00000p  699.9924m   43.2902u 
   72.10000p  699.9926m   43.1875u 
   72.20000p  699.9928m   43.0848u 
   72.30000p  699.9931m   42.9821u 
   72.40000p  699.9933m   42.8795u 
   72.50000p  699.9935m   42.7768u 
   72.60000p  699.9937m   42.6741u 
   72.70000p  699.9939m   42.5714u 
   72.80000p  699.9941m   42.4687u 
   72.90000p  699.9943m   42.3660u 
   73.00000p  699.9945m   42.2634u 
   73.10000p  699.9947m   42.1607u 
   73.20000p  699.9949m   42.0580u 
   73.30000p  699.9951m   41.9553u 
   73.40000p  699.9954m   41.8526u 
   73.50000p  699.9956m   41.7499u 
   73.60000p  699.9958m   41.6472u 
   73.70000p  699.9960m   41.5446u 
   73.80000p  699.9962m   41.4419u 
   73.90000p  699.9964m   41.3392u 
   74.00000p  699.9966m   41.2365u 
   74.10000p  699.9968m   41.1338u 
   74.20000p  699.9970m   41.0311u 
   74.30000p  699.9972m   40.9285u 
   74.40000p  699.9974m   40.8258u 
   74.50000p  699.9976m   40.7231u 
   74.60000p  699.9976m   40.7446u 
   74.70000p  699.9975m   40.8203u 
   74.80000p  699.9973m   40.8961u 
   74.90000p  699.9972m   40.9718u 
   75.00000p  699.9970m   41.0476u 
   75.10000p  699.9969m   41.1234u 
   75.20000p  699.9967m   41.1991u 
   75.30000p  699.9966m   41.2749u 
   75.40000p  699.9964m   41.3507u 
   75.50000p  699.9963m   41.4264u 
   75.60000p  699.9961m   41.5022u 
   75.70000p  699.9960m   41.5780u 
   75.80000p  699.9958m   41.6537u 
   75.90000p  699.9957m   41.7295u 
   76.00000p  699.9955m   41.8053u 
   76.10000p  699.9954m   41.8810u 
   76.20000p  699.9952m   41.9568u 
   76.30000p  699.9951m   42.0326u 
   76.40000p  699.9949m   42.1083u 
   76.50000p  699.9948m   42.1841u 
   76.60000p  699.9946m   42.2598u 
   76.70000p  699.9945m   42.3356u 
   76.80000p  699.9943m   42.4114u 
   76.90000p  699.9942m   42.4871u 
   77.00000p  699.9940m   42.5629u 
   77.10000p  699.9939m   42.6387u 
   77.20000p  699.9937m   42.7144u 
   77.30000p  699.9936m   42.7902u 
   77.40000p  699.9934m   42.8660u 
   77.50000p  699.9933m   42.9417u 
   77.60000p  699.9931m   43.0175u 
   77.70000p  699.9930m   43.0933u 
   77.80000p  699.9928m   43.1690u 
   77.90000p  699.9927m   43.2448u 
   78.00000p  699.9925m   43.3206u 
   78.10000p  699.9924m   43.3963u 
   78.20000p  699.9922m   43.4721u 
   78.30000p  699.9921m   43.5478u 
   78.40000p  699.9919m   43.6236u 
   78.50000p  699.9918m   43.6994u 
   78.60000p  699.9916m   43.7751u 
   78.70000p  699.9915m   43.8509u 
   78.80000p  699.9913m   43.9267u 
   78.90000p  699.9912m   44.0024u 
   79.00000p  699.9910m   44.0782u 
   79.10000p  699.9909m   44.1540u 
   79.20000p  699.9907m   44.2297u 
   79.30000p  699.9906m   44.3055u 
   79.40000p  699.9904m   44.3813u 
   79.50000p  699.9903m   44.4570u 
   79.60000p  699.9901m   44.5328u 
   79.70000p  699.9900m   44.6086u 
   79.80000p  699.9898m   44.6843u 
   79.90000p  699.9897m   44.7601u 
   80.00000p  699.9895m   44.8358u 
   80.10000p  699.9894m   44.9116u 
   80.20000p  699.9892m   44.9874u 
   80.30000p  699.9891m   45.0631u 
   80.40000p  699.9889m   45.1389u 
   80.50000p  699.9888m   45.2147u 
   80.60000p  699.9886m   45.2904u 
   80.70000p  699.9885m   45.3662u 
   80.80000p  699.9883m   45.4420u 
   80.90000p  699.9882m   45.5177u 
   81.00000p  699.9880m   45.5935u 
   81.10000p  699.9879m   45.6693u 
   81.20000p  699.9877m   45.7450u 
   81.30000p  699.9876m   45.8208u 
   81.40000p  699.9874m   45.8966u 
   81.50000p  699.9873m   45.9723u 
   81.60000p  699.9871m   46.0481u 
   81.70000p  699.9870m   46.1238u 
   81.80000p  699.9868m   46.1996u 
   81.90000p  699.9867m   46.2754u 
   82.00000p  699.9865m   46.3511u 
   82.10000p  699.9864m   46.4269u 
   82.20000p  699.9862m   46.5027u 
   82.30000p  699.9861m   46.5784u 
   82.40000p  699.9859m   46.6542u 
   82.50000p  699.9858m   46.7300u 
   82.60000p  699.9856m   46.8057u 
   82.70000p  699.9855m   46.8815u 
   82.80000p  699.9853m   46.9573u 
   82.90000p  699.9852m   47.0330u 
   83.00000p  699.9850m   47.1088u 
   83.10000p  699.9849m   47.1846u 
   83.20000p  699.9847m   47.2603u 
   83.30000p  699.9846m   47.3361u 
   83.40000p  699.9844m   47.4118u 
   83.50000p  699.9843m   47.4876u 
   83.60000p  699.9841m   47.5634u 
   83.70000p  699.9840m   47.6391u 
   83.80000p  699.9838m   47.7149u 
   83.90000p  699.9837m   47.7907u 
   84.00000p  699.9835m   47.8664u 
   84.10000p  699.9833m   47.9422u 
   84.20000p  699.9832m   48.0180u 
   84.30000p  699.9830m   48.0937u 
   84.40000p  699.9829m   48.1695u 
   84.50000p  699.9827m   48.2453u 
   84.60000p  699.9826m   48.3210u 
   84.70000p  699.9824m   48.3968u 
   84.80000p  699.9823m   48.4726u 
   84.90000p  699.9821m   48.5483u 
   85.00000p  699.9820m   48.6241u 
   85.10000p  699.9818m   48.6998u 
   85.20000p  699.9817m   48.7756u 
   85.30000p  699.9815m   48.8514u 
   85.40000p  699.9814m   48.9271u 
   85.50000p  699.9812m   49.0029u 
   85.60000p  699.9811m   49.0787u 
   85.70000p  699.9809m   49.1544u 
   85.80000p  699.9808m   49.2302u 
   85.90000p  699.9806m   49.3060u 
   86.00000p  699.9805m   49.3817u 
   86.10000p  699.9803m   49.4575u 
   86.20000p  699.9802m   49.5333u 
   86.30000p  699.9800m   49.6090u 
   86.40000p  699.9799m   49.6848u 
   86.50000p  699.9797m   49.7606u 
   86.60000p  699.9796m   49.8363u 
   86.70000p  699.9794m   49.9121u 
   86.80000p  699.9793m   49.9878u 
   86.90000p  699.9791m   50.0636u 
   87.00000p  699.9790m   50.1394u 
   87.10000p  699.9788m   50.2151u 
   87.20000p  699.9787m   50.2909u 
   87.30000p  699.9785m   50.3667u 
   87.40000p  699.9784m   50.4424u 
   87.50000p  699.9782m   50.5182u 
   87.60000p  699.9781m   50.5940u 
   87.70000p  699.9779m   50.6697u 
   87.80000p  699.9778m   50.7455u 
   87.90000p  699.9776m   50.8213u 
   88.00000p  699.9775m   50.8970u 
   88.10000p  699.9773m   50.9728u 
   88.20000p  699.9772m   51.0486u 
   88.30000p  699.9770m   51.1243u 
   88.40000p  699.9769m   51.2001u 
   88.50000p  699.9767m   51.2758u 
   88.60000p  699.9766m   51.3516u 
   88.70000p  699.9764m   51.4274u 
   88.80000p  699.9763m   51.5031u 
   88.90000p  699.9761m   51.5789u 
   89.00000p  699.9760m   51.6547u 
   89.10000p  699.9758m   51.7304u 
   89.20000p  699.9757m   51.8062u 
   89.30000p  699.9755m   51.8820u 
   89.40000p  699.9754m   51.9577u 
   89.50000p  699.9752m   52.0335u 
   89.60000p  699.9751m   52.1093u 
   89.70000p  699.9749m   52.1850u 
   89.80000p  699.9748m   52.2608u 
   89.90000p  699.9746m   52.3366u 
   90.00000p  699.9745m   52.4123u 
   90.10000p  699.9743m   52.4881u 
   90.20000p  699.9742m   52.5638u 
   90.30000p  699.9740m   52.6396u 
   90.40000p  699.9739m   52.7154u 
   90.50000p  699.9737m   52.7911u 
   90.60000p  699.9736m   52.8647u 
   90.70000p  699.9737m   52.8056u 
   90.80000p  699.9738m   52.7465u 
   90.90000p  699.9739m   52.6874u 
   91.00000p  699.9740m   52.6283u 
   91.10000p  699.9741m   52.5692u 
   91.20000p  699.9742m   52.5101u 
   91.30000p  699.9744m   52.4509u 
   91.40000p  699.9745m   52.3918u 
   91.50000p  699.9746m   52.3327u 
   91.60000p  699.9747m   52.2736u 
   91.70000p  699.9748m   52.2145u 
   91.80000p  699.9749m   52.1554u 
   91.90000p  699.9750m   52.0963u 
   92.00000p  699.9751m   52.0372u 
   92.10000p  699.9752m   51.9781u 
   92.20000p  699.9753m   51.9190u 
   92.30000p  699.9754m   51.8599u 
   92.40000p  699.9755m   51.8007u 
   92.50000p  699.9756m   51.7416u 
   92.60000p  699.9757m   51.6825u 
   92.70000p  699.9759m   51.6234u 
   92.80000p  699.9760m   51.5643u 
   92.90000p  699.9761m   51.5052u 
   93.00000p  699.9762m   51.4461u 
   93.10000p  699.9763m   51.3870u 
   93.20000p  699.9764m   51.3279u 
   93.30000p  699.9765m   51.2688u 
   93.40000p  699.9766m   51.2096u 
   93.50000p  699.9767m   51.1505u 
   93.60000p  699.9768m   51.0914u 
   93.70000p  699.9769m   51.0323u 
   93.80000p  699.9770m   50.9732u 
   93.90000p  699.9771m   50.9141u 
   94.00000p  699.9772m   50.8550u 
   94.10000p  699.9774m   50.7959u 
   94.20000p  699.9775m   50.7368u 
   94.30000p  699.9776m   50.6777u 
   94.40000p  699.9777m   50.6185u 
   94.50000p  699.9778m   50.5594u 
   94.60000p  699.9779m   50.5003u 
   94.70000p  699.9780m   50.4412u 
   94.80000p  699.9781m   50.3821u 
   94.90000p  699.9782m   50.3230u 
   95.00000p  699.9783m   50.2639u 
   95.10000p  699.9784m   50.2048u 
   95.20000p  699.9785m   50.1457u 
   95.30000p  699.9786m   50.0866u 
   95.40000p  699.9787m   50.0274u 
   95.50000p  699.9789m   49.9683u 
   95.60000p  699.9790m   49.9092u 
   95.70000p  699.9791m   49.8501u 
   95.80000p  699.9792m   49.7910u 
   95.90000p  699.9793m   49.7319u 
   96.00000p  699.9794m   49.6728u 
   96.10000p  699.9795m   49.6137u 
   96.20000p  699.9796m   49.5546u 
   96.30000p  699.9797m   49.4955u 
   96.40000p  699.9798m   49.4364u 
   96.50000p  699.9799m   49.3772u 
   96.60000p  699.9800m   49.3181u 
   96.70000p  699.9801m   49.2590u 
   96.80000p  699.9803m   49.1999u 
   96.90000p  699.9804m   49.1408u 
   97.00000p  699.9805m   49.0817u 
   97.10000p  699.9806m   49.0226u 
   97.20000p  699.9807m   48.9635u 
   97.30000p  699.9808m   48.9044u 
   97.40000p  699.9809m   48.8453u 
   97.50000p  699.9810m   48.7861u 
   97.60000p  699.9811m   48.7270u 
   97.70000p  699.9812m   48.6679u 
   97.80000p  699.9813m   48.6088u 
   97.90000p  699.9814m   48.5497u 
   98.00000p  699.9815m   48.4906u 
   98.10000p  699.9816m   48.4315u 
   98.20000p  699.9818m   48.3724u 
   98.30000p  699.9819m   48.3133u 
   98.40000p  699.9820m   48.2542u 
   98.50000p  699.9821m   48.1950u 
   98.60000p  699.9822m   48.1359u 
   98.70000p  699.9823m   48.0768u 
   98.80000p  699.9824m   48.0177u 
   98.90000p  699.9825m   47.9586u 
   99.00000p  699.9826m   47.8995u 
   99.10000p  699.9827m   47.8404u 
   99.20000p  699.9828m   47.7813u 
   99.30000p  699.9829m   47.7222u 
   99.40000p  699.9830m   47.6631u 
   99.50000p  699.9831m   47.6039u 
   99.60000p  699.9833m   47.5448u 
   99.70000p  699.9834m   47.4857u 
   99.80000p  699.9835m   47.4266u 
   99.90000p  699.9836m   47.3675u 
  100.00000p  699.9837m   47.3084u 
  100.10000p  699.9838m   47.2493u 
  100.20000p  699.9839m   47.1902u 
  100.30000p  699.9840m   47.1311u 
  100.40000p  699.9841m   47.0720u 
  100.50000p  699.9842m   47.0129u 
  100.60000p  699.9843m   46.9537u 
  100.70000p  699.9844m   46.8946u 
  100.80000p  699.9845m   46.8355u 
  100.90000p  699.9847m   46.7764u 
  101.00000p  699.9848m   46.7173u 
  101.10000p  699.9849m   46.6582u 
  101.20000p  699.9850m   46.5991u 
  101.30000p  699.9851m   46.5400u 
  101.40000p  699.9852m   46.4809u 
  101.50000p  699.9853m   46.4218u 
  101.60000p  699.9854m   46.3626u 
  101.70000p  699.9855m   46.3035u 
  101.80000p  699.9856m   46.2444u 
  101.90000p  699.9857m   46.1853u 
  102.00000p  699.9858m   46.1262u 
  102.10000p  699.9859m   46.0671u 
  102.20000p  699.9860m   46.0080u 
  102.30000p  699.9862m   45.9489u 
  102.40000p  699.9863m   45.8898u 
  102.50000p  699.9864m   45.8307u 
  102.60000p  699.9865m   45.7715u 
  102.70000p  699.9866m   45.7124u 
  102.80000p  699.9867m   45.6533u 
  102.90000p  699.9868m   45.5942u 
  103.00000p  699.9869m   45.5351u 
  103.10000p  699.9870m   45.4760u 
  103.20000p  699.9871m   45.4169u 
  103.30000p  699.9872m   45.3578u 
  103.40000p  699.9873m   45.2987u 
  103.50000p  699.9874m   45.2396u 
  103.60000p  699.9875m   45.1804u 
  103.70000p  699.9877m   45.1213u 
  103.80000p  699.9878m   45.0622u 
  103.90000p  699.9879m   45.0031u 
  104.00000p  699.9880m   44.9440u 
  104.10000p  699.9881m   44.8849u 
  104.20000p  699.9882m   44.8258u 
  104.30000p  699.9883m   44.7667u 
  104.40000p  699.9884m   44.7076u 
  104.50000p  699.9885m   44.6485u 
  104.60000p  699.9886m   44.5894u 
  104.70000p  699.9887m   44.5302u 
  104.80000p  699.9888m   44.4711u 
  104.90000p  699.9889m   44.4120u 
  105.00000p  699.9891m   44.3529u 
  105.10000p  699.9892m   44.2938u 
  105.20000p  699.9893m   44.2347u 
  105.30000p  699.9894m   44.1756u 
  105.40000p  699.9895m   44.1165u 
  105.50000p  699.9896m   44.0574u 
  105.60000p  699.9897m   43.9983u 
  105.70000p  699.9898m   43.9391u 
  105.80000p  699.9899m   43.8800u 
  105.90000p  699.9900m   43.8209u 
  106.00000p  699.9901m   43.7618u 
  106.10000p  699.9902m   43.7027u 
  106.20000p  699.9903m   43.6436u 
  106.30000p  699.9904m   43.5845u 
  106.40000p  699.9906m   43.5254u 
  106.50000p  699.9907m   43.4663u 
  106.60000p  699.9908m   43.4072u 
  106.70000p  699.9909m   43.3480u 
  106.80000p  699.9910m   43.2889u 
  106.90000p  699.9911m   43.2298u 
  107.00000p  699.9912m   43.1707u 
  107.10000p  699.9913m   43.1116u 
  107.20000p  699.9914m   43.0525u 
  107.30000p  699.9915m   42.9934u 
  107.40000p  699.9916m   42.9343u 
  107.50000p  699.9917m   42.8752u 
  107.60000p  699.9918m   42.8161u 
  107.70000p  699.9919m   42.7569u 
  107.80000p  699.9921m   42.6978u 
  107.90000p  699.9922m   42.6387u 
  108.00000p  699.9923m   42.5796u 
  108.10000p  699.9924m   42.5205u 
  108.20000p  699.9925m   42.4614u 
  108.30000p  699.9926m   42.4023u 
  108.40000p  699.9927m   42.3432u 
  108.50000p  699.9928m   42.2841u 
  108.60000p  699.9929m   42.2250u 
  108.70000p  699.9930m   42.1659u 
  108.80000p  699.9931m   42.1067u 
  108.90000p  699.9932m   42.0476u 
  109.00000p  699.9933m   41.9885u 
  109.10000p  699.9935m   41.9294u 
  109.20000p  699.9936m   41.8703u 
  109.30000p  699.9937m   41.8112u 
  109.40000p  699.9938m   41.7521u 
  109.50000p  699.9939m   41.6930u 
  109.60000p  699.9940m   41.6339u 
  109.70000p  699.9941m   41.5748u 
  109.80000p  699.9942m   41.5156u 
  109.90000p  699.9943m   41.4565u 
  110.00000p  699.9944m   41.3974u 
  110.10000p  699.9945m   41.3383u 
  110.20000p  699.9946m   41.2792u 
  110.30000p  699.9947m   41.2201u 
  110.40000p  699.9948m   41.1610u 
  110.50000p  699.9950m   41.1019u 
  110.60000p  699.9951m   41.0428u 
  110.70000p  699.9952m   40.9837u 
  110.80000p  699.9953m   40.9245u 
  110.90000p  699.9954m   40.8654u 
  111.00000p  699.9955m   40.8063u 
  111.10000p  699.9956m   40.7472u 
  111.20000p  699.9957m   40.6881u 
  111.30000p  699.9958m   40.6290u 
  111.40000p  699.9959m   40.5699u 
  111.50000p  699.9960m   40.5108u 
  111.60000p  699.9961m   40.4517u 
  111.70000p  699.9962m   40.3926u 
  111.80000p  699.9963m   40.3334u 
  111.90000p  699.9965m   40.2743u 
  112.00000p  699.9966m   40.2152u 
  112.10000p  699.9967m   40.1561u 
  112.20000p  699.9967m   40.1387u 
  112.30000p  699.9966m   40.2066u 
  112.40000p  699.9965m   40.2744u 
  112.50000p  699.9963m   40.3422u 
  112.60000p  699.9962m   40.4100u 
  112.70000p  699.9961m   40.4778u 
  112.80000p  699.9960m   40.5456u 
  112.90000p  699.9959m   40.6134u 
  113.00000p  699.9958m   40.6813u 
  113.10000p  699.9956m   40.7491u 
  113.20000p  699.9955m   40.8169u 
  113.30000p  699.9954m   40.8847u 
  113.40000p  699.9953m   40.9525u 
  113.50000p  699.9952m   41.0203u 
  113.60000p  699.9950m   41.0881u 
  113.70000p  699.9949m   41.1559u 
  113.80000p  699.9948m   41.2238u 
  113.90000p  699.9947m   41.2916u 
  114.00000p  699.9946m   41.3594u 
  114.10000p  699.9944m   41.4272u 
  114.20000p  699.9943m   41.4950u 
  114.30000p  699.9942m   41.5628u 
  114.40000p  699.9941m   41.6306u 
  114.50000p  699.9940m   41.6984u 
  114.60000p  699.9938m   41.7663u 
  114.70000p  699.9937m   41.8341u 
  114.80000p  699.9936m   41.9019u 
  114.90000p  699.9935m   41.9697u 
  115.00000p  699.9934m   42.0375u 
  115.10000p  699.9933m   42.1053u 
  115.20000p  699.9931m   42.1731u 
  115.30000p  699.9930m   42.2410u 
  115.40000p  699.9929m   42.3088u 
  115.50000p  699.9928m   42.3766u 
  115.60000p  699.9927m   42.4444u 
  115.70000p  699.9925m   42.5122u 
  115.80000p  699.9924m   42.5800u 
  115.90000p  699.9923m   42.6478u 
  116.00000p  699.9922m   42.7156u 
  116.10000p  699.9921m   42.7835u 
  116.20000p  699.9919m   42.8513u 
  116.30000p  699.9918m   42.9191u 
  116.40000p  699.9917m   42.9869u 
  116.50000p  699.9916m   43.0547u 
  116.60000p  699.9915m   43.1225u 
  116.70000p  699.9914m   43.1903u 
  116.80000p  699.9912m   43.2582u 
  116.90000p  699.9911m   43.3260u 
  117.00000p  699.9910m   43.3938u 
  117.10000p  699.9909m   43.4616u 
  117.20000p  699.9908m   43.5294u 
  117.30000p  699.9906m   43.5972u 
  117.40000p  699.9905m   43.6650u 
  117.50000p  699.9904m   43.7328u 
  117.60000p  699.9903m   43.8007u 
  117.70000p  699.9902m   43.8685u 
  117.80000p  699.9900m   43.9363u 
  117.90000p  699.9899m   44.0041u 
  118.00000p  699.9898m   44.0719u 
  118.10000p  699.9897m   44.1397u 
  118.20000p  699.9896m   44.2075u 
  118.30000p  699.9894m   44.2754u 
  118.40000p  699.9893m   44.3432u 
  118.50000p  699.9892m   44.4110u 
  118.60000p  699.9891m   44.4788u 
  118.70000p  699.9890m   44.5466u 
  118.80000p  699.9889m   44.6144u 
  118.90000p  699.9887m   44.6822u 
  119.00000p  699.9886m   44.7500u 
  119.10000p  699.9885m   44.8179u 
  119.20000p  699.9884m   44.8857u 
  119.30000p  699.9883m   44.9535u 
  119.40000p  699.9881m   45.0213u 
  119.50000p  699.9880m   45.0891u 
  119.60000p  699.9879m   45.1569u 
  119.70000p  699.9878m   45.2247u 
  119.80000p  699.9877m   45.2926u 
  119.90000p  699.9875m   45.3604u 
  120.00000p  699.9874m   45.4282u 
  120.10000p  699.9873m   45.4960u 
  120.20000p  699.9872m   45.5638u 
  120.30000p  699.9871m   45.6316u 
  120.40000p  699.9870m   45.6994u 
  120.50000p  699.9868m   45.7672u 
  120.60000p  699.9867m   45.8351u 
  120.70000p  699.9866m   45.9029u 
  120.80000p  699.9865m   45.9707u 
  120.90000p  699.9864m   46.0385u 
  121.00000p  699.9862m   46.1063u 
  121.10000p  699.9861m   46.1741u 
  121.20000p  699.9860m   46.2419u 
  121.30000p  699.9859m   46.3097u 
  121.40000p  699.9858m   46.3776u 
  121.50000p  699.9856m   46.4454u 
  121.60000p  699.9855m   46.5132u 
  121.70000p  699.9854m   46.5810u 
  121.80000p  699.9853m   46.6488u 
  121.90000p  699.9852m   46.7166u 
  122.00000p  699.9850m   46.7844u 
  122.10000p  699.9849m   46.8523u 
  122.20000p  699.9848m   46.9201u 
  122.30000p  699.9847m   46.9879u 
  122.40000p  699.9846m   47.0557u 
  122.50000p  699.9845m   47.1235u 
  122.60000p  699.9843m   47.1913u 
  122.70000p  699.9842m   47.2591u 
  122.80000p  699.9841m   47.3269u 
  122.90000p  699.9840m   47.3948u 
  123.00000p  699.9839m   47.4626u 
  123.10000p  699.9837m   47.5304u 
  123.20000p  699.9836m   47.5982u 
  123.30000p  699.9835m   47.6660u 
  123.40000p  699.9834m   47.7338u 
  123.50000p  699.9833m   47.8016u 
  123.60000p  699.9831m   47.8695u 
  123.70000p  699.9830m   47.9373u 
  123.80000p  699.9829m   48.0051u 
  123.90000p  699.9828m   48.0729u 
  124.00000p  699.9827m   48.1407u 
  124.10000p  699.9826m   48.2085u 
  124.20000p  699.9824m   48.2763u 
  124.30000p  699.9823m   48.3441u 
  124.40000p  699.9822m   48.4120u 
  124.50000p  699.9821m   48.4798u 
  124.60000p  699.9820m   48.5476u 
  124.70000p  699.9818m   48.6154u 
  124.80000p  699.9817m   48.6832u 
  124.90000p  699.9816m   48.7510u 
  125.00000p  699.9815m   48.8188u 
  125.10000p  699.9814m   48.8867u 
  125.20000p  699.9812m   48.9545u 
  125.30000p  699.9811m   49.0223u 
  125.40000p  699.9810m   49.0901u 
  125.50000p  699.9809m   49.1579u 
  125.60000p  699.9808m   49.2257u 
  125.70000p  699.9806m   49.2935u 
  125.80000p  699.9805m   49.3613u 
  125.90000p  699.9804m   49.4292u 
  126.00000p  699.9803m   49.4970u 
  126.10000p  699.9802m   49.5648u 
  126.20000p  699.9801m   49.6326u 
  126.30000p  699.9799m   49.7004u 
  126.40000p  699.9798m   49.7682u 
  126.50000p  699.9797m   49.8360u 
  126.60000p  699.9796m   49.9038u 
  126.70000p  699.9795m   49.9717u 
  126.80000p  699.9793m   50.0395u 
  126.90000p  699.9792m   50.1073u 
  127.00000p  699.9791m   50.1751u 
  127.10000p  699.9790m   50.2429u 
  127.20000p  699.9789m   50.3107u 
  127.30000p  699.9787m   50.3785u 
  127.40000p  699.9786m   50.4464u 
  127.50000p  699.9785m   50.5142u 
  127.60000p  699.9784m   50.5820u 
  127.70000p  699.9783m   50.6498u 
  127.80000p  699.9782m   50.7176u 
  127.90000p  699.9780m   50.7854u 
  128.00000p  699.9779m   50.8532u 
  128.10000p  699.9778m   50.9210u 
  128.20000p  699.9777m   50.9889u 
  128.30000p  699.9776m   51.0567u 
  128.40000p  699.9774m   51.1245u 
  128.50000p  699.9773m   51.1923u 
  128.60000p  699.9772m   51.2601u 
  128.70000p  699.9771m   51.3279u 
  128.80000p  699.9770m   51.3957u 
  128.90000p  699.9768m   51.4636u 
  129.00000p  699.9767m   51.5314u 
  129.10000p  699.9766m   51.5992u 
  129.20000p  699.9765m   51.6670u 
  129.30000p  699.9764m   51.7348u 
  129.40000p  699.9762m   51.8026u 
  129.50000p  699.9761m   51.8704u 
  129.60000p  699.9760m   51.9382u 
  129.70000p  699.9759m   52.0061u 
  129.80000p  699.9758m   52.0739u 
  129.90000p  699.9757m   52.1417u 
  130.00000p  699.9755m   52.2095u 
  130.10000p  699.9754m   52.2773u 
  130.20000p  699.9753m   52.3451u 
  130.30000p  699.9752m   52.4129u 
  130.40000p  699.9751m   52.4808u 
  130.50000p  699.9749m   52.5486u 
  130.60000p  699.9748m   52.6164u 
  130.70000p  699.9747m   52.6842u 
  130.80000p  699.9746m   52.7520u 
  130.90000p  699.9745m   52.8198u 
  131.00000p  699.9743m   52.8876u 
  131.10000p  699.9753m   45.1508u 
  131.20000p  699.9763m   37.4139u 
  131.30000p  699.9772m   29.6770u 
  131.40000p  699.9782m   21.9402u 
  131.50000p  699.9792m   14.2033u 
  131.60000p  699.9801m    6.4664u 
  131.70000p  699.9811m   -1.2704u 
  131.80000p  699.9821m   -9.0073u 
  131.90000p  699.9830m  -16.7442u 
  132.00000p  699.9835m  -18.9460u 
  132.10000p  699.9838m  -17.8268u 
  132.20000p  699.9840m  -16.7076u 
  132.30000p  699.9843m  -15.5884u 
  132.40000p  699.9845m  -14.4692u 
  132.50000p  699.9848m  -13.3499u 
  132.60000p  699.9851m  -12.2307u 
  132.70000p  699.9853m  -11.1115u 
  132.80000p  699.9856m   -9.9923u 
  132.90000p  699.9858m   -8.8731u 
  133.00000p  699.9861m   -7.7539u 
  133.10000p  699.9863m   -6.6347u 
  133.20000p  699.9866m   -5.5155u 
  133.30000p  699.9868m   -4.3963u 
  133.40000p  699.9868m   -2.7130u 
  133.50000p  699.9867m -929.0314n 
  133.60000p  699.9867m  854.9862n 
  133.70000p  699.9866m    2.6390u 
  133.80000p  699.9866m    4.4230u 
  133.90000p  699.9865m    6.2070u 
  134.00000p  699.9865m    7.9911u 
  134.10000p  699.9864m    9.7751u 
  134.20000p  699.9863m   11.5591u 
  134.30000p  699.9863m   13.3431u 
  134.40000p  699.9862m   15.1271u 
  134.50000p  699.9862m   16.9111u 
  134.60000p  699.9861m   18.6952u 
  134.70000p  699.9861m   20.4792u 
  134.80000p  699.9860m   22.2632u 
  134.90000p  699.9859m   24.0472u 
  135.00000p  699.9859m   25.8312u 
  135.10000p  699.9858m   27.6152u 
  135.20000p  699.9858m   29.3993u 
  135.30000p  699.9857m   31.1833u 
  135.40000p  699.9856m   32.9673u 
  135.50000p  699.9856m   34.7513u 
  135.60000p  699.9855m   36.5353u 
  135.70000p  699.9855m   38.3194u 
  135.80000p  699.9854m   40.1034u 
  135.90000p  699.9854m   41.8874u 
  136.00000p  699.9853m   43.6714u 
  136.10000p  699.9852m   45.4554u 
  136.20000p  699.9852m   47.2394u 
  136.30000p  699.9851m   49.0235u 
  136.40000p  699.9851m   50.8075u 
  136.50000p  699.9850m   52.5915u 
  136.60000p  699.9850m   54.3755u 
  136.70000p  699.9849m   56.1595u 
  136.80000p  699.9848m   57.9435u 
  136.90000p  699.9848m   59.7276u 
  137.00000p  699.9847m   61.5116u 
  137.10000p  699.9847m   63.2956u 
  137.20000p  699.9846m   65.0796u 
  137.30000p  699.9845m   66.8636u 
  137.40000p  699.9845m   68.6477u 
  137.50000p  699.9844m   70.4317u 
  137.60000p  699.9844m   72.2157u 
  137.70000p  699.9843m   73.9997u 
  137.80000p  699.9843m   73.6440u 
  137.90000p  699.9844m   72.6242u 
  138.00000p  699.9844m   71.6043u 
  138.10000p  699.9844m   70.5845u 
  138.20000p  699.9845m   69.5646u 
  138.30000p  699.9845m   68.5448u 
  138.40000p  699.9846m   67.5249u 
  138.50000p  699.9846m   66.5051u 
  138.60000p  699.9846m   65.4852u 
  138.70000p  699.9847m   64.4654u 
  138.80000p  699.9847m   63.4455u 
  138.90000p  699.9848m   62.4257u 
  139.00000p  699.9848m   61.4059u 
  139.10000p  699.9848m   60.3860u 
  139.20000p  699.9849m   59.3662u 
  139.30000p  699.9849m   58.3463u 
  139.40000p  699.9849m   57.3265u 
  139.50000p  699.9850m   56.3066u 
  139.60000p  699.9850m   55.2868u 
  139.70000p  699.9851m   54.2669u 
  139.80000p  699.9851m   53.2471u 
  139.90000p  699.9851m   52.2272u 
  140.00000p  699.9852m   51.2074u 
  140.10000p  699.9852m   50.1875u 
  140.20000p  699.9852m   49.1677u 
  140.30000p  699.9853m   48.1479u 
  140.40000p  699.9853m   47.1280u 
  140.50000p  699.9854m   46.1082u 
  140.60000p  699.9854m   45.0883u 
  140.70000p  699.9854m   44.0685u 
  140.80000p  699.9855m   43.0486u 
  140.90000p  699.9855m   42.0288u 
  141.00000p  699.9856m   41.0089u 
  141.10000p  699.9856m   39.9891u 
  141.20000p  699.9856m   38.9692u 
  141.30000p  699.9857m   37.9494u 
  141.40000p  699.9857m   36.9296u 
  141.50000p  699.9857m   35.9097u 
  141.60000p  699.9858m   35.1801u 
  141.70000p  699.9858m   35.4745u 
  141.80000p  699.9858m   35.7689u 
  141.90000p  699.9857m   36.0633u 
  142.00000p  699.9857m   36.3577u 
  142.10000p  699.9857m   36.6521u 
  142.20000p  699.9857m   36.9465u 
  142.30000p  699.9857m   37.2409u 
  142.40000p  699.9857m   37.5353u 
  142.50000p  699.9857m   37.8297u 
  142.60000p  699.9857m   38.1241u 
  142.70000p  699.9857m   38.4185u 
  142.80000p  699.9857m   38.7129u 
  142.90000p  699.9857m   39.0074u 
  143.00000p  699.9857m   39.3018u 
  143.10000p  699.9856m   39.5962u 
  143.20000p  699.9856m   39.8906u 
  143.30000p  699.9856m   40.1850u 
  143.40000p  699.9856m   40.4794u 
  143.50000p  699.9856m   40.7738u 
  143.60000p  699.9856m   41.0682u 
  143.70000p  699.9856m   41.3626u 
  143.80000p  699.9856m   41.6570u 
  143.90000p  699.9856m   41.9514u 
  144.00000p  699.9856m   42.2458u 
  144.10000p  699.9856m   42.5402u 
  144.20000p  699.9856m   42.8346u 
  144.30000p  699.9855m   43.1290u 
  144.40000p  699.9855m   43.4234u 
  144.50000p  699.9855m   43.7178u 
  144.60000p  699.9855m   44.0122u 
  144.70000p  699.9855m   44.3066u 
  144.80000p  699.9855m   44.6010u 
  144.90000p  699.9855m   44.8954u 
  145.00000p  699.9855m   45.1898u 
  145.10000p  699.9855m   45.4842u 
  145.20000p  699.9855m   45.7786u 
  145.30000p  699.9855m   46.0730u 
  145.40000p  699.9855m   46.3674u 
  145.50000p  699.9855m   46.6618u 
  145.60000p  699.9854m   46.9562u 
  145.70000p  699.9854m   47.2506u 
  145.80000p  699.9854m   47.5450u 
  145.90000p  699.9854m   47.8394u 
  146.00000p  699.9854m   48.1338u 
  146.10000p  699.9854m   48.4282u 
  146.20000p  699.9854m   48.7226u 
  146.30000p  699.9854m   49.0170u 
  146.40000p  699.9854m   49.3114u 
  146.50000p  699.9854m   49.6058u 
  146.60000p  699.9854m   49.9002u 
  146.70000p  699.9854m   50.1946u 
  146.80000p  699.9853m   50.4890u 
  146.90000p  699.9853m   50.7834u 
  147.00000p  699.9853m   51.0778u 
  147.10000p  699.9853m   51.3722u 
  147.20000p  699.9853m   51.6666u 
  147.30000p  699.9853m   51.9610u 
  147.40000p  699.9853m   52.2554u 
  147.50000p  699.9853m   52.5498u 
  147.60000p  699.9853m   52.8442u 
  147.70000p  699.9853m   53.1386u 
  147.80000p  699.9853m   53.4330u 
  147.90000p  699.9853m   53.7274u 
  148.00000p  699.9852m   54.0218u 
  148.10000p  699.9852m   54.3162u 
  148.20000p  699.9852m   54.6106u 
  148.30000p  699.9852m   54.9050u 
  148.40000p  699.9852m   55.1994u 
  148.50000p  699.9852m   55.4938u 
  148.60000p  699.9852m   55.7883u 
  148.70000p  699.9852m   56.0827u 
  148.80000p  699.9852m   56.3771u 
  148.90000p  699.9852m   56.6715u 
  149.00000p  699.9852m   56.9659u 
  149.10000p  699.9852m   57.2603u 
  149.20000p  699.9851m   57.5547u 
  149.30000p  699.9851m   57.8491u 
  149.40000p  699.9851m   58.1435u 
  149.50000p  699.9851m   58.4379u 
  149.60000p  699.9851m   58.7323u 
  149.70000p  699.9851m   59.0267u 
  149.80000p  699.9851m   59.3211u 
  149.90000p  699.9851m   59.6155u 
  150.00000p  699.9851m   59.1361u 
  150.10000p  699.9851m   58.5211u 
  150.20000p  699.9851m   57.9060u 
  150.30000p  699.9851m   57.2909u 
  150.40000p  699.9851m   56.6758u 
  150.50000p  699.9851m   56.0607u 
  150.60000p  699.9851m   55.4457u 
  150.70000p  699.9851m   54.8306u 
  150.80000p  699.9851m   54.2155u 
  150.90000p  699.9851m   53.6004u 
  151.00000p  699.9851m   52.9853u 
  151.10000p  699.9851m   52.3702u 
  151.20000p  699.9851m   51.7552u 
  151.30000p  699.9851m   51.1401u 
  151.40000p  699.9851m   50.5250u 
  151.50000p  699.9851m   49.9099u 
  151.60000p  699.9851m   49.2948u 
  151.70000p  699.9851m   48.6798u 
  151.80000p  699.9851m   48.0647u 
  151.90000p  699.9851m   47.4496u 
  152.00000p  699.9851m   46.8345u 
  152.10000p  699.9851m   46.2194u 
  152.20000p  699.9851m   45.6044u 
  152.30000p  699.9851m   44.9893u 
  152.40000p  699.9851m   44.3742u 
  152.50000p  699.9851m   43.7591u 
  152.60000p  699.9851m   43.1440u 
  152.70000p  699.9851m   42.6218u 
  152.80000p  699.9851m   42.6795u 
  152.90000p  699.9851m   42.7372u 
  153.00000p  699.9851m   42.7948u 
  153.10000p  699.9851m   42.8525u 
  153.20000p  699.9851m   42.9101u 
  153.30000p  699.9851m   42.9678u 
  153.40000p  699.9851m   43.0255u 
  153.50000p  699.9851m   43.0831u 
  153.60000p  699.9851m   43.1408u 
  153.70000p  699.9851m   43.1984u 
  153.80000p  699.9852m   43.2561u 
  153.90000p  699.9852m   43.3137u 
  154.00000p  699.9852m   43.3714u 
  154.10000p  699.9852m   43.4291u 
  154.20000p  699.9852m   43.4867u 
  154.30000p  699.9852m   43.5444u 
  154.40000p  699.9852m   43.6020u 
  154.50000p  699.9852m   43.6597u 
  154.60000p  699.9852m   43.7173u 
  154.70000p  699.9852m   43.7750u 
  154.80000p  699.9852m   43.8327u 
  154.90000p  699.9852m   43.8903u 
  155.00000p  699.9852m   43.9480u 
  155.10000p  699.9852m   44.0056u 
  155.20000p  699.9852m   44.0633u 
  155.30000p  699.9852m   44.1209u 
  155.40000p  699.9853m   44.1786u 
  155.50000p  699.9853m   44.2363u 
  155.60000p  699.9853m   44.2939u 
  155.70000p  699.9853m   44.3516u 
  155.80000p  699.9853m   44.4092u 
  155.90000p  699.9853m   44.4669u 
  156.00000p  699.9853m   44.5246u 
  156.10000p  699.9853m   44.5822u 
  156.20000p  699.9853m   44.6399u 
  156.30000p  699.9853m   44.6975u 
  156.40000p  699.9853m   44.7552u 
  156.50000p  699.9853m   44.8128u 
  156.60000p  699.9853m   44.8705u 
  156.70000p  699.9853m   44.9282u 
  156.80000p  699.9853m   44.9858u 
  156.90000p  699.9853m   45.0435u 
  157.00000p  699.9854m   45.1011u 
  157.10000p  699.9854m   45.1588u 
  157.20000p  699.9854m   45.2164u 
  157.30000p  699.9854m   45.2741u 
  157.40000p  699.9854m   45.3318u 
  157.50000p  699.9854m   45.3894u 
  157.60000p  699.9854m   45.4471u 
  157.70000p  699.9854m   45.5047u 
  157.80000p  699.9854m   45.5624u 
  157.90000p  699.9854m   45.6201u 
  158.00000p  699.9854m   45.6777u 
  158.10000p  699.9854m   45.7354u 
  158.20000p  699.9854m   45.7930u 
  158.30000p  699.9854m   45.8507u 
  158.40000p  699.9854m   45.9083u 
  158.50000p  699.9854m   45.9660u 
  158.60000p  699.9855m   46.0237u 
  158.70000p  699.9855m   46.0813u 
  158.80000p  699.9855m   46.1390u 
  158.90000p  699.9855m   46.1966u 
  159.00000p  699.9855m   46.2543u 
  159.10000p  699.9855m   46.3119u 
  159.20000p  699.9855m   46.3696u 
  159.30000p  699.9855m   46.4273u 
  159.40000p  699.9855m   46.4849u 
  159.50000p  699.9855m   46.5426u 
  159.60000p  699.9855m   46.6002u 
  159.70000p  699.9855m   46.6579u 
  159.80000p  699.9855m   46.7155u 
  159.90000p  699.9855m   46.7732u 
  160.00000p  699.9855m   46.8309u 
  160.10000p  699.9855m   46.8885u 
  160.20000p  699.9855m   46.9462u 
  160.30000p  699.9856m   47.0038u 
  160.40000p  699.9856m   47.0615u 
  160.50000p  699.9856m   47.1192u 
  160.60000p  699.9856m   47.1768u 
  160.70000p  699.9856m   47.2345u 
  160.80000p  699.9856m   47.2921u 
  160.90000p  699.9856m   47.3498u 
  161.00000p  699.9856m   47.4074u 
  161.10000p  699.9858m   56.5978u 
  161.20000p  699.9859m   65.7881u 
  161.30000p  699.9861m   74.9785u 
  161.40000p  699.9863m   84.1688u 
  161.50000p  699.9864m   93.3591u 
  161.60000p  699.9866m  102.5495u 
  161.70000p  699.9868m  111.7398u 
  161.80000p  699.9869m  120.9302u 
  161.90000p  699.9868m  121.3825u 
  162.00000p  699.9865m  120.0140u 
  162.10000p  699.9863m  118.6456u 
  162.20000p  699.9861m  117.2771u 
  162.30000p  699.9858m  115.9086u 
  162.40000p  699.9856m  114.5401u 
  162.50000p  699.9853m  113.1717u 
  162.60000p  699.9851m  111.8032u 
  162.70000p  699.9849m  110.4347u 
  162.80000p  699.9847m  108.2829u 
  162.90000p  699.9847m  105.2298u 
  163.00000p  699.9847m  102.1766u 
  163.10000p  699.9848m   99.1234u 
  163.20000p  699.9848m   96.0703u 
  163.30000p  699.9848m   93.0171u 
  163.40000p  699.9848m   89.9639u 
  163.50000p  699.9848m   86.9108u 
  163.60000p  699.9848m   83.8576u 
  163.70000p  699.9848m   80.8044u 
  163.80000p  699.9848m   77.7513u 
  163.90000p  699.9848m   74.6981u 
  164.00000p  699.9848m   71.6449u 
  164.10000p  699.9848m   68.5918u 
  164.20000p  699.9848m   65.5386u 
  164.30000p  699.9848m   62.4854u 
  164.40000p  699.9848m   59.4323u 
  164.50000p  699.9848m   56.3791u 
  164.60000p  699.9848m   53.3259u 
  164.70000p  699.9848m   50.2728u 
  164.80000p  699.9848m   47.2196u 
  164.90000p  699.9848m   44.1664u 
  165.00000p  699.9848m   41.1133u 
  165.10000p  699.9848m   38.0601u 
  165.20000p  699.9848m   35.0069u 
  165.30000p  699.9848m   31.9538u 
  165.40000p  699.9848m   28.9006u 
  165.50000p  699.9848m   25.8474u 
  165.60000p  699.9848m   22.7943u 
  165.70000p  699.9848m   19.7411u 
  165.80000p  699.9848m   18.8541u 
  165.90000p  699.9849m   20.0931u 
  166.00000p  699.9849m   21.3320u 
  166.10000p  699.9849m   22.5710u 
  166.20000p  699.9850m   23.8100u 
  166.30000p  699.9850m   25.0489u 
  166.40000p  699.9850m   26.2879u 
  166.50000p  699.9850m   27.5269u 
  166.60000p  699.9851m   28.7659u 
  166.70000p  699.9851m   30.0048u 
  166.80000p  699.9851m   31.2438u 
  166.90000p  699.9852m   32.4828u 
  167.00000p  699.9852m   33.7217u 
  167.10000p  699.9852m   34.9607u 
  167.20000p  699.9853m   36.1997u 
  167.30000p  699.9853m   37.4387u 
  167.40000p  699.9853m   38.6776u 
  167.50000p  699.9854m   39.9166u 
  167.60000p  699.9854m   41.1556u 
  167.70000p  699.9854m   42.3945u 
  167.80000p  699.9855m   43.6335u 
  167.90000p  699.9855m   44.8725u 
  168.00000p  699.9855m   46.1115u 
  168.10000p  699.9856m   47.3504u 
  168.20000p  699.9856m   48.5894u 
  168.30000p  699.9856m   49.8284u 
  168.40000p  699.9857m   51.0673u 
  168.50000p  699.9857m   52.3063u 
  168.60000p  699.9857m   53.5453u 
  168.70000p  699.9858m   54.7842u 
  168.80000p  699.9858m   56.0232u 
  168.90000p  699.9858m   57.2622u 
  169.00000p  699.9859m   58.5012u 
  169.10000p  699.9859m   59.7401u 
  169.20000p  699.9859m   60.9791u 
  169.30000p  699.9860m   62.2181u 
  169.40000p  699.9860m   63.4570u 
  169.50000p  699.9860m   63.7667u 
  169.60000p  699.9860m   63.2823u 
  169.70000p  699.9859m   62.7978u 
  169.80000p  699.9859m   62.3134u 
  169.90000p  699.9859m   61.8290u 
  170.00000p  699.9859m   61.3445u 
  170.10000p  699.9859m   60.8601u 
  170.20000p  699.9858m   60.3756u 
  170.30000p  699.9858m   59.8912u 
  170.40000p  699.9858m   59.4067u 
  170.50000p  699.9858m   58.9223u 
  170.60000p  699.9858m   58.4378u 
  170.70000p  699.9857m   57.9534u 
  170.80000p  699.9857m   57.4689u 
  170.90000p  699.9857m   56.9845u 
  171.00000p  699.9857m   56.5000u 
  171.10000p  699.9857m   56.0156u 
  171.20000p  699.9856m   55.5311u 
  171.30000p  699.9856m   55.0467u 
  171.40000p  699.9856m   54.5622u 
  171.50000p  699.9856m   54.0778u 
  171.60000p  699.9855m   53.5933u 
  171.70000p  699.9855m   53.1089u 
  171.80000p  699.9855m   52.6244u 
  171.90000p  699.9855m   52.1400u 
  172.00000p  699.9855m   51.6556u 
  172.10000p  699.9854m   51.1711u 
  172.20000p  699.9854m   50.6867u 
  172.30000p  699.9854m   50.2022u 
  172.40000p  699.9854m   49.7178u 
  172.50000p  699.9854m   49.2333u 
  172.60000p  699.9853m   48.7489u 
  172.70000p  699.9853m   48.2644u 
  172.80000p  699.9853m   47.7800u 
  172.90000p  699.9853m   47.2955u 
  173.00000p  699.9853m   46.8111u 
  173.10000p  699.9852m   46.3266u 
  173.20000p  699.9852m   45.8422u 
  173.30000p  699.9852m   45.3577u 
  173.40000p  699.9852m   44.8733u 
  173.50000p  699.9852m   44.3888u 
  173.60000p  699.9851m   43.9044u 
  173.70000p  699.9851m   43.4199u 
  173.80000p  699.9851m   42.9355u 
  173.90000p  699.9851m   42.4510u 
  174.00000p  699.9850m   41.9666u 
  174.10000p  699.9850m   41.4822u 
  174.20000p  699.9850m   40.9977u 
  174.30000p  699.9850m   40.5133u 
  174.40000p  699.9850m   40.0288u 
  174.50000p  699.9849m   39.5444u 
  174.60000p  699.9849m   39.0599u 
  174.70000p  699.9849m   38.5755u 
  174.80000p  699.9849m   38.0910u 
  174.90000p  699.9849m   37.6066u 
  175.00000p  699.9848m   37.1221u 
  175.10000p  699.9848m   36.6377u 
  175.20000p  699.9848m   36.1532u 
  175.30000p  699.9848m   35.6688u 
  175.40000p  699.9848m   35.1843u 
  175.50000p  699.9847m   34.6999u 
  175.60000p  699.9847m   34.2154u 
  175.70000p  699.9847m   33.7310u 
  175.80000p  699.9847m   33.2465u 
  175.90000p  699.9847m   32.7621u 
  176.00000p  699.9847m   32.9488u 
  176.10000p  699.9847m   33.1634u 
  176.20000p  699.9847m   33.3779u 
  176.30000p  699.9847m   33.5925u 
  176.40000p  699.9847m   33.8070u 
  176.50000p  699.9847m   34.0216u 
  176.60000p  699.9847m   34.2361u 
  176.70000p  699.9847m   34.4506u 
  176.80000p  699.9848m   34.6652u 
  176.90000p  699.9848m   34.8797u 
  177.00000p  699.9848m   35.0943u 
  177.10000p  699.9848m   35.3088u 
  177.20000p  699.9848m   35.5234u 
  177.30000p  699.9848m   35.7379u 
  177.40000p  699.9848m   35.9524u 
  177.50000p  699.9848m   36.1670u 
  177.60000p  699.9848m   36.3815u 
  177.70000p  699.9849m   36.5961u 
  177.80000p  699.9849m   36.8106u 
  177.90000p  699.9849m   37.0252u 
  178.00000p  699.9849m   37.2397u 
  178.10000p  699.9849m   37.4543u 
  178.20000p  699.9849m   37.6688u 
  178.30000p  699.9849m   37.8833u 
  178.40000p  699.9849m   38.0979u 
  178.50000p  699.9849m   38.3124u 
  178.60000p  699.9850m   38.5270u 
  178.70000p  699.9850m   38.7415u 
  178.80000p  699.9850m   38.9561u 
  178.90000p  699.9850m   39.1706u 
  179.00000p  699.9850m   39.3851u 
  179.10000p  699.9850m   39.5997u 
  179.20000p  699.9850m   39.8142u 
  179.30000p  699.9850m   40.0288u 
  179.40000p  699.9850m   40.2433u 
  179.50000p  699.9851m   40.4579u 
  179.60000p  699.9851m   40.6724u 
  179.70000p  699.9851m   40.8870u 
  179.80000p  699.9851m   41.1015u 
  179.90000p  699.9851m   41.3160u 
  180.00000p  699.9851m   41.5306u 
  180.10000p  699.9851m   41.7451u 
  180.20000p  699.9851m   41.9597u 
  180.30000p  699.9851m   42.1742u 
  180.40000p  699.9852m   42.3888u 
  180.50000p  699.9852m   42.6033u 
  180.60000p  699.9852m   42.8178u 
  180.70000p  699.9852m   43.0324u 
  180.80000p  699.9852m   43.2469u 
  180.90000p  699.9852m   43.4615u 
  181.00000p  699.9852m   43.6760u 
  181.10000p  699.9852m   43.8906u 
  181.20000p  699.9852m   44.1051u 
  181.30000p  699.9853m   44.3197u 
  181.40000p  699.9853m   44.5342u 
  181.50000p  699.9853m   44.7487u 
  181.60000p  699.9853m   44.9633u 
  181.70000p  699.9853m   45.1778u 
  181.80000p  699.9853m   45.3924u 
  181.90000p  699.9853m   45.6069u 
  182.00000p  699.9853m   45.8215u 
  182.10000p  699.9853m   46.0360u 
  182.20000p  699.9854m   46.2505u 
  182.30000p  699.9854m   46.4651u 
  182.40000p  699.9854m   46.6796u 
  182.50000p  699.9854m   46.8942u 
  182.60000p  699.9854m   47.1087u 
  182.70000p  699.9854m   47.3233u 
  182.80000p  699.9854m   47.5378u 
  182.90000p  699.9854m   47.7524u 
  183.00000p  699.9854m   47.9669u 
  183.10000p  699.9855m   48.1814u 
  183.20000p  699.9855m   48.3960u 
  183.30000p  699.9855m   48.6105u 
  183.40000p  699.9855m   48.8251u 
  183.50000p  699.9855m   49.0396u 
  183.60000p  699.9855m   49.2542u 
  183.70000p  699.9855m   49.4687u 
  183.80000p  699.9855m   49.6832u 
  183.90000p  699.9855m   49.8978u 
  184.00000p  699.9856m   50.1123u 
  184.10000p  699.9856m   50.3269u 
  184.20000p  699.9856m   50.5414u 
  184.30000p  699.9856m   50.7560u 
  184.40000p  699.9856m   50.9705u 
  184.50000p  699.9856m   51.1851u 
  184.60000p  699.9856m   51.3996u 
  184.70000p  699.9856m   51.6141u 
  184.80000p  699.9856m   51.8287u 
  184.90000p  699.9857m   52.0432u 
  185.00000p  699.9857m   52.2578u 
  185.10000p  699.9857m   52.4723u 
  185.20000p  699.9857m   52.6869u 
  185.30000p  699.9857m   52.9014u 
  185.40000p  699.9857m   53.1159u 
  185.50000p  699.9857m   53.3305u 
  185.60000p  699.9857m   53.5450u 
  185.70000p  699.9857m   53.7596u 
  185.80000p  699.9858m   53.9741u 
  185.90000p  699.9858m   54.1887u 
  186.00000p  699.9858m   54.4032u 
  186.10000p  699.9858m   54.6178u 
  186.20000p  699.9858m   54.8323u 
  186.30000p  699.9858m   55.0468u 
  186.40000p  699.9858m   55.2614u 
  186.50000p  699.9858m   55.4759u 
  186.60000p  699.9858m   55.6905u 
  186.70000p  699.9859m   55.9050u 
  186.80000p  699.9859m   56.1196u 
  186.90000p  699.9859m   56.3341u 
  187.00000p  699.9859m   56.5486u 
  187.10000p  699.9859m   56.7632u 
  187.20000p  699.9859m   56.9777u 
  187.30000p  699.9859m   57.1923u 
  187.40000p  699.9859m   57.4068u 
  187.50000p  699.9860m   57.6214u 
  187.60000p  699.9860m   57.8359u 
  187.70000p  699.9860m   58.0505u 
  187.80000p  699.9860m   58.2650u 
  187.90000p  699.9860m   58.4795u 
  188.00000p  699.9860m   58.6941u 
  188.10000p  699.9860m   58.9086u 
  188.20000p  699.9860m   58.7541u 
  188.30000p  699.9860m   58.5697u 
  188.40000p  699.9860m   58.3854u 
  188.50000p  699.9860m   58.2011u 
  188.60000p  699.9860m   58.0168u 
  188.70000p  699.9860m   57.8325u 
  188.80000p  699.9859m   57.6482u 
  188.90000p  699.9859m   57.4638u 
  189.00000p  699.9859m   57.2795u 
  189.10000p  699.9859m   57.0952u 
  189.20000p  699.9859m   56.9109u 
  189.30000p  699.9859m   56.7266u 
  189.40000p  699.9859m   56.5423u 
  189.50000p  699.9859m   56.3579u 
  189.60000p  699.9859m   56.1736u 
  189.70000p  699.9858m   55.9893u 
  189.80000p  699.9858m   55.8050u 
  189.90000p  699.9858m   55.6207u 
  190.00000p  699.9858m   55.4364u 
  190.10000p  699.9858m   55.2520u 
[...]
  950.00000p  699.9850m   57.5273u 
  950.10000p  699.9850m   57.7853u 
  950.20000p  699.9850m   57.8264u 
  950.30000p  699.9850m   57.3230u 
  950.40000p  699.9850m   56.8196u 
  950.50000p  699.9850m   56.3161u 
  950.60000p  699.9851m   55.8127u 
  950.70000p  699.9851m   55.3093u 
  950.80000p  699.9851m   54.8059u 
  950.90000p  699.9851m   54.3025u 
  951.00000p  699.9851m   53.7991u 
  951.10000p  699.9851m   53.2957u 
  951.20000p  699.9851m   52.7922u 
  951.30000p  699.9851m   52.2888u 
  951.40000p  699.9851m   51.7854u 
  951.50000p  699.9851m   51.2820u 
  951.60000p  699.9851m   50.7786u 
  951.70000p  699.9852m   50.2752u 
  951.80000p  699.9852m   49.7718u 
  951.90000p  699.9852m   49.2684u 
  952.00000p  699.9852m   48.7649u 
  952.10000p  699.9852m   48.2615u 
  952.20000p  699.9852m   47.7581u 
  952.30000p  699.9852m   47.2547u 
  952.40000p  699.9852m   46.7513u 
  952.50000p  699.9852m   46.2479u 
  952.60000p  699.9852m   45.7445u 
  952.70000p  699.9852m   45.2411u 
  952.80000p  699.9852m   44.7376u 
  952.90000p  699.9853m   44.3459u 
  953.00000p  699.9853m   44.3652u 
  953.10000p  699.9853m   44.3845u 
  953.20000p  699.9853m   44.4039u 
  953.30000p  699.9853m   44.4232u 
  953.40000p  699.9853m   44.4425u 
  953.50000p  699.9853m   44.4618u 
  953.60000p  699.9853m   44.4811u 
  953.70000p  699.9853m   44.5005u 
  953.80000p  699.9853m   44.5198u 
  953.90000p  699.9853m   44.5391u 
  954.00000p  699.9853m   44.5584u 
  954.10000p  699.9853m   44.5777u 
  954.20000p  699.9853m   44.5971u 
  954.30000p  699.9853m   44.6164u 
  954.40000p  699.9853m   44.6357u 
  954.50000p  699.9853m   44.6550u 
  954.60000p  699.9853m   44.6743u 
  954.70000p  699.9853m   44.6937u 
  954.80000p  699.9853m   44.7130u 
  954.90000p  699.9853m   44.7323u 
  955.00000p  699.9853m   44.7516u 
  955.10000p  699.9853m   44.7709u 
  955.20000p  699.9853m   44.7902u 
  955.30000p  699.9853m   44.8096u 
  955.40000p  699.9853m   44.8289u 
  955.50000p  699.9853m   44.8482u 
  955.60000p  699.9853m   44.8675u 
  955.70000p  699.9853m   44.8868u 
  955.80000p  699.9853m   44.9062u 
  955.90000p  699.9853m   44.9255u 
  956.00000p  699.9853m   44.9448u 
  956.10000p  699.9853m   44.9641u 
  956.20000p  699.9853m   44.9834u 
  956.30000p  699.9853m   45.0028u 
  956.40000p  699.9853m   45.0221u 
  956.50000p  699.9853m   45.0414u 
  956.60000p  699.9853m   45.0607u 
  956.70000p  699.9853m   45.0800u 
  956.80000p  699.9854m   45.0993u 
  956.90000p  699.9854m   45.1187u 
  957.00000p  699.9854m   45.1380u 
  957.10000p  699.9854m   45.1573u 
  957.20000p  699.9854m   45.1766u 
  957.30000p  699.9854m   45.1959u 
  957.40000p  699.9854m   45.2153u 
  957.50000p  699.9854m   45.2346u 
  957.60000p  699.9854m   45.2539u 
  957.70000p  699.9854m   45.2732u 
  957.80000p  699.9854m   45.2925u 
  957.90000p  699.9854m   45.3119u 
  958.00000p  699.9854m   45.3312u 
  958.10000p  699.9854m   45.3505u 
  958.20000p  699.9854m   45.3698u 
  958.30000p  699.9854m   45.3891u 
  958.40000p  699.9854m   45.4085u 
  958.50000p  699.9854m   45.4278u 
  958.60000p  699.9854m   45.4471u 
  958.70000p  699.9854m   45.4664u 
  958.80000p  699.9854m   45.4857u 
  958.90000p  699.9854m   45.5050u 
  959.00000p  699.9854m   45.5244u 
  959.10000p  699.9854m   45.5437u 
  959.20000p  699.9854m   45.5630u 
  959.30000p  699.9854m   45.5823u 
  959.40000p  699.9854m   45.6016u 
  959.50000p  699.9854m   45.6210u 
  959.60000p  699.9854m   45.6403u 
  959.70000p  699.9854m   45.6596u 
  959.80000p  699.9854m   45.6789u 
  959.90000p  699.9854m   45.6982u 
  960.00000p  699.9854m   45.7176u 
  960.10000p  699.9854m   45.7369u 
  960.20000p  699.9854m   45.7562u 
  960.30000p  699.9854m   45.7755u 
  960.40000p  699.9854m   45.7948u 
  960.50000p  699.9854m   45.8141u 
  960.60000p  699.9854m   45.8335u 
  960.70000p  699.9854m   45.8528u 
  960.80000p  699.9854m   45.8721u 
  960.90000p  699.9854m   45.8914u 
  961.00000p  699.9855m   45.9107u 
  961.10000p  699.9855m   54.5819u 
  961.20000p  699.9856m   63.2531u 
  961.30000p  699.9857m   71.9242u 
  961.40000p  699.9858m   80.5954u 
  961.50000p  699.9859m   89.2666u 
  961.60000p  699.9860m   97.9377u 
  961.70000p  699.9861m  106.6089u 
  961.80000p  699.9862m  115.2801u 
  961.90000p  699.9862m  118.1477u 
  962.00000p  699.9860m  116.8841u 
  962.10000p  699.9858m  115.6205u 
  962.20000p  699.9856m  114.3569u 
  962.30000p  699.9854m  113.0933u 
  962.40000p  699.9853m  111.8298u 
  962.50000p  699.9851m  110.5662u 
  962.60000p  699.9849m  109.3026u 
  962.70000p  699.9847m  108.0390u 
  962.80000p  699.9846m  106.2757u 
  962.90000p  699.9846m  103.3905u 
  963.00000p  699.9846m  100.5053u 
  963.10000p  699.9847m   97.6201u 
  963.20000p  699.9847m   94.7349u 
  963.30000p  699.9847m   91.8498u 
  963.40000p  699.9847m   88.9646u 
  963.50000p  699.9848m   86.0794u 
  963.60000p  699.9848m   83.1942u 
  963.70000p  699.9848m   80.3090u 
  963.80000p  699.9848m   77.4238u 
  963.90000p  699.9849m   74.5386u 
  964.00000p  699.9849m   71.6534u 
  964.10000p  699.9849m   68.7682u 
  964.20000p  699.9849m   65.8831u 
  964.30000p  699.9850m   62.9979u 
  964.40000p  699.9850m   60.1127u 
  964.50000p  699.9850m   57.2275u 
  964.60000p  699.9850m   54.3423u 
  964.70000p  699.9851m   51.4571u 
  964.80000p  699.9851m   48.5719u 
  964.90000p  699.9851m   45.6867u 
  965.00000p  699.9851m   42.8015u 
  965.10000p  699.9852m   39.9164u 
  965.20000p  699.9852m   37.0312u 
  965.30000p  699.9852m   34.1460u 
  965.40000p  699.9852m   31.2608u 
  965.50000p  699.9853m   28.3756u 
  965.60000p  699.9853m   25.4904u 
  965.70000p  699.9853m   22.6052u 
  965.80000p  699.9853m   22.2010u 
  965.90000p  699.9853m   23.2858u 
  966.00000p  699.9853m   24.3706u 
  966.10000p  699.9853m   25.4553u 
  966.20000p  699.9854m   26.5401u 
  966.30000p  699.9854m   27.6249u 
  966.40000p  699.9854m   28.7097u 
  966.50000p  699.9854m   29.7945u 
  966.60000p  699.9854m   30.8792u 
  966.70000p  699.9854m   31.9640u 
  966.80000p  699.9854m   33.0488u 
  966.90000p  699.9854m   34.1336u 
  967.00000p  699.9854m   35.2183u 
  967.10000p  699.9854m   36.3031u 
  967.20000p  699.9854m   37.3879u 
  967.30000p  699.9854m   38.4727u 
  967.40000p  699.9854m   39.5575u 
  967.50000p  699.9854m   40.6422u 
  967.60000p  699.9854m   41.7270u 
  967.70000p  699.9854m   42.8118u 
  967.80000p  699.9855m   43.8966u 
  967.90000p  699.9855m   44.9814u 
  968.00000p  699.9855m   46.0661u 
  968.10000p  699.9855m   47.1509u 
  968.20000p  699.9855m   48.2357u 
  968.30000p  699.9855m   49.3205u 
  968.40000p  699.9855m   50.4053u 
  968.50000p  699.9855m   51.4900u 
  968.60000p  699.9855m   52.5748u 
  968.70000p  699.9855m   53.6596u 
  968.80000p  699.9855m   54.7444u 
  968.90000p  699.9855m   55.8292u 
  969.00000p  699.9855m   56.9139u 
  969.10000p  699.9855m   57.9987u 
  969.20000p  699.9855m   59.0835u 
  969.30000p  699.9855m   60.1683u 
  969.40000p  699.9856m   61.2530u 
  969.50000p  699.9856m   62.1505u 
  969.60000p  699.9856m   61.7134u 
  969.70000p  699.9855m   61.2762u 
  969.80000p  699.9855m   60.8391u 
  969.90000p  699.9855m   60.4019u 
  970.00000p  699.9855m   59.9648u 
  970.10000p  699.9855m   59.5276u 
  970.20000p  699.9855m   59.0905u 
  970.30000p  699.9855m   58.6533u 
  970.40000p  699.9855m   58.2162u 
  970.50000p  699.9855m   57.7790u 
  970.60000p  699.9855m   57.3419u 
  970.70000p  699.9855m   56.9047u 
  970.80000p  699.9854m   56.4676u 
  970.90000p  699.9854m   56.0304u 
  971.00000p  699.9854m   55.5933u 
  971.10000p  699.9854m   55.1561u 
  971.20000p  699.9854m   54.7190u 
  971.30000p  699.9854m   54.2818u 
  971.40000p  699.9854m   53.8447u 
  971.50000p  699.9854m   53.4075u 
  971.60000p  699.9854m   52.9704u 
  971.70000p  699.9854m   52.5332u 
  971.80000p  699.9854m   52.0961u 
  971.90000p  699.9854m   51.6589u 
  972.00000p  699.9853m   51.2218u 
  972.10000p  699.9853m   50.7846u 
  972.20000p  699.9853m   50.3475u 
  972.30000p  699.9853m   49.9103u 
  972.40000p  699.9853m   49.4732u 
  972.50000p  699.9853m   49.0360u 
  972.60000p  699.9853m   48.5989u 
  972.70000p  699.9853m   48.1617u 
  972.80000p  699.9853m   47.7246u 
  972.90000p  699.9853m   47.2874u 
  973.00000p  699.9853m   46.8503u 
  973.10000p  699.9853m   46.4131u 
  973.20000p  699.9852m   45.9760u 
  973.30000p  699.9852m   45.5388u 
  973.40000p  699.9852m   45.1017u 
  973.50000p  699.9852m   44.6645u 
  973.60000p  699.9852m   44.2274u 
  973.70000p  699.9852m   43.7902u 
  973.80000p  699.9852m   43.3530u 
  973.90000p  699.9852m   42.9159u 
  974.00000p  699.9852m   42.4787u 
  974.10000p  699.9852m   42.0416u 
  974.20000p  699.9852m   41.6044u 
  974.30000p  699.9852m   41.1673u 
  974.40000p  699.9851m   40.7301u 
  974.50000p  699.9851m   40.2930u 
  974.60000p  699.9851m   39.8558u 
  974.70000p  699.9851m   39.4187u 
  974.80000p  699.9851m   38.9815u 
  974.90000p  699.9851m   38.5444u 
  975.00000p  699.9851m   38.1072u 
  975.10000p  699.9851m   37.6701u 
  975.20000p  699.9851m   37.2329u 
  975.30000p  699.9851m   36.7958u 
  975.40000p  699.9851m   36.3586u 
  975.50000p  699.9850m   35.9215u 
  975.60000p  699.9850m   35.4843u 
  975.70000p  699.9850m   35.0472u 
  975.80000p  699.9850m   34.6100u 
  975.90000p  699.9850m   34.1729u 
  976.00000p  699.9850m   34.0938u 
  976.10000p  699.9850m   34.2862u 
  976.20000p  699.9850m   34.4787u 
  976.30000p  699.9850m   34.6712u 
  976.40000p  699.9850m   34.8636u 
  976.50000p  699.9850m   35.0561u 
  976.60000p  699.9850m   35.2485u 
  976.70000p  699.9851m   35.4410u 
  976.80000p  699.9851m   35.6334u 
  976.90000p  699.9851m   35.8259u 
  977.00000p  699.9851m   36.0184u 
  977.10000p  699.9851m   36.2108u 
  977.20000p  699.9851m   36.4033u 
  977.30000p  699.9851m   36.5957u 
  977.40000p  699.9851m   36.7882u 
  977.50000p  699.9851m   36.9806u 
  977.60000p  699.9851m   37.1731u 
  977.70000p  699.9851m   37.3656u 
  977.80000p  699.9851m   37.5580u 
  977.90000p  699.9851m   37.7505u 
  978.00000p  699.9851m   37.9429u 
  978.10000p  699.9851m   38.1354u 
  978.20000p  699.9851m   38.3278u 
  978.30000p  699.9851m   38.5203u 
  978.40000p  699.9851m   38.7128u 
  978.50000p  699.9851m   38.9052u 
  978.60000p  699.9852m   39.0977u 
  978.70000p  699.9852m   39.2901u 
  978.80000p  699.9852m   39.4826u 
  978.90000p  699.9852m   39.6750u 
  979.00000p  699.9852m   39.8675u 
  979.10000p  699.9852m   40.0600u 
  979.20000p  699.9852m   40.2524u 
  979.30000p  699.9852m   40.4449u 
  979.40000p  699.9852m   40.6373u 
  979.50000p  699.9852m   40.8298u 
  979.60000p  699.9852m   41.0222u 
  979.70000p  699.9852m   41.2147u 
  979.80000p  699.9852m   41.4072u 
  979.90000p  699.9852m   41.5996u 
  980.00000p  699.9852m   41.7921u 
  980.10000p  699.9852m   41.9845u 
  980.20000p  699.9852m   42.1770u 
  980.30000p  699.9852m   42.3694u 
  980.40000p  699.9853m   42.5619u 
  980.50000p  699.9853m   42.7543u 
  980.60000p  699.9853m   42.9468u 
  980.70000p  699.9853m   43.1393u 
  980.80000p  699.9853m   43.3317u 
  980.90000p  699.9853m   43.5242u 
  981.00000p  699.9853m   43.7166u 
  981.10000p  699.9853m   43.9091u 
  981.20000p  699.9853m   44.1015u 
  981.30000p  699.9853m   44.2940u 
  981.40000p  699.9853m   44.4865u 
  981.50000p  699.9853m   44.6789u 
  981.60000p  699.9853m   44.8714u 
  981.70000p  699.9853m   45.0638u 
  981.80000p  699.9853m   45.2563u 
  981.90000p  699.9853m   45.4487u 
  982.00000p  699.9853m   45.6412u 
  982.10000p  699.9853m   45.8337u 
  982.20000p  699.9853m   46.0261u 
  982.30000p  699.9854m   46.2186u 
  982.40000p  699.9854m   46.4110u 
  982.50000p  699.9854m   46.6035u 
  982.60000p  699.9854m   46.7959u 
  982.70000p  699.9854m   46.9884u 
  982.80000p  699.9854m   47.1809u 
  982.90000p  699.9854m   47.3733u 
  983.00000p  699.9854m   47.5658u 
  983.10000p  699.9854m   47.7582u 
  983.20000p  699.9854m   47.9507u 
  983.30000p  699.9854m   48.1431u 
  983.40000p  699.9854m   48.3356u 
  983.50000p  699.9854m   48.5281u 
  983.60000p  699.9854m   48.7205u 
  983.70000p  699.9854m   48.9130u 
  983.80000p  699.9854m   49.1054u 
  983.90000p  699.9854m   49.2979u 
  984.00000p  699.9854m   49.4903u 
  984.10000p  699.9855m   49.6828u 
  984.20000p  699.9855m   49.8753u 
  984.30000p  699.9855m   50.0677u 
  984.40000p  699.9855m   50.2602u 
  984.50000p  699.9855m   50.4526u 
  984.60000p  699.9855m   50.6451u 
  984.70000p  699.9855m   50.8375u 
  984.80000p  699.9855m   51.0300u 
  984.90000p  699.9855m   51.2225u 
  985.00000p  699.9855m   51.4149u 
  985.10000p  699.9855m   51.6074u 
  985.20000p  699.9855m   51.7998u 
  985.30000p  699.9855m   51.9923u 
  985.40000p  699.9855m   52.1847u 
  985.50000p  699.9855m   52.3772u 
  985.60000p  699.9855m   52.5697u 
  985.70000p  699.9855m   52.7621u 
  985.80000p  699.9855m   52.9546u 
  985.90000p  699.9855m   53.1470u 
  986.00000p  699.9856m   53.3395u 
  986.10000p  699.9856m   53.5319u 
  986.20000p  699.9856m   53.7244u 
  986.30000p  699.9856m   53.9169u 
  986.40000p  699.9856m   54.1093u 
  986.50000p  699.9856m   54.3018u 
  986.60000p  699.9856m   54.4942u 
  986.70000p  699.9856m   54.6867u 
  986.80000p  699.9856m   54.8791u 
  986.90000p  699.9856m   55.0716u 
  987.00000p  699.9856m   55.2641u 
  987.10000p  699.9856m   55.4565u 
  987.20000p  699.9856m   55.6490u 
  987.30000p  699.9856m   55.8414u 
  987.40000p  699.9856m   56.0339u 
  987.50000p  699.9856m   56.2263u 
  987.60000p  699.9856m   56.4188u 
  987.70000p  699.9856m   56.6113u 
  987.80000p  699.9857m   56.8037u 
  987.90000p  699.9857m   56.9962u 
  988.00000p  699.9857m   57.1886u 
  988.10000p  699.9857m   57.3811u 
  988.20000p  699.9857m   57.5735u 
  988.30000p  699.9857m   57.7660u 
  988.40000p  699.9857m   57.6257u 
  988.50000p  699.9857m   57.4405u 
  988.60000p  699.9857m   57.2553u 
  988.70000p  699.9857m   57.0700u 
  988.80000p  699.9856m   56.8848u 
  988.90000p  699.9856m   56.6996u 
  989.00000p  699.9856m   56.5143u 
  989.10000p  699.9856m   56.3291u 
  989.20000p  699.9856m   56.1439u 
  989.30000p  699.9856m   55.9587u 
  989.40000p  699.9856m   55.7734u 
  989.50000p  699.9856m   55.5882u 
  989.60000p  699.9856m   55.4030u 
  989.70000p  699.9856m   55.2177u 
  989.80000p  699.9856m   55.0325u 
  989.90000p  699.9856m   54.8473u 
  990.00000p  699.9856m   54.6620u 
  990.10000p  699.9856m   54.4768u 
  990.20000p  699.9856m   54.2916u 
  990.30000p  699.9856m   54.1064u 
  990.40000p  699.9855m   53.9211u 
  990.50000p  699.9855m   53.7359u 
  990.60000p  699.9855m   53.5507u 
  990.70000p  699.9855m   53.3654u 
  990.80000p  699.9855m   53.1802u 
  990.90000p  699.9855m   52.9950u 
  991.00000p  699.9855m   52.8098u 
  991.10000p  699.9855m   52.6245u 
  991.20000p  699.9855m   52.4393u 
  991.30000p  699.9855m   52.2541u 
  991.40000p  699.9855m   52.0688u 
  991.50000p  699.9855m   51.8836u 
  991.60000p  699.9855m   51.6984u 
  991.70000p  699.9855m   51.5132u 
  991.80000p  699.9855m   51.3279u 
  991.90000p  699.9855m   51.1427u 
  992.00000p  699.9854m   50.9575u 
  992.10000p  699.9854m   50.7722u 
  992.20000p  699.9854m   50.5870u 
  992.30000p  699.9854m   50.4018u 
  992.40000p  699.9854m   50.2166u 
  992.50000p  699.9854m   50.0313u 
  992.60000p  699.9854m   49.8461u 
  992.70000p  699.9854m   49.6609u 
  992.80000p  699.9854m   49.4756u 
  992.90000p  699.9854m   49.2904u 
  993.00000p  699.9854m   49.1052u 
  993.10000p  699.9854m   48.9200u 
  993.20000p  699.9854m   48.7347u 
  993.30000p  699.9854m   48.5495u 
  993.40000p  699.9854m   48.3643u 
  993.50000p  699.9854m   48.1790u 
  993.60000p  699.9853m   47.9938u 
  993.70000p  699.9853m   47.8086u 
  993.80000p  699.9853m   47.6234u 
  993.90000p  699.9853m   47.4381u 
  994.00000p  699.9853m   47.2529u 
  994.10000p  699.9853m   47.0677u 
  994.20000p  699.9853m   46.8824u 
  994.30000p  699.9853m   46.6972u 
  994.40000p  699.9853m   46.5120u 
  994.50000p  699.9853m   46.3268u 
  994.60000p  699.9853m   46.1415u 
  994.70000p  699.9853m   45.9563u 
  994.80000p  699.9853m   45.7711u 
  994.90000p  699.9853m   45.5858u 
  995.00000p  699.9853m   45.4006u 
  995.10000p  699.9853m   45.2154u 
  995.20000p  699.9852m   45.0302u 
  995.30000p  699.9852m   44.8449u 
  995.40000p  699.9852m   44.6597u 
  995.50000p  699.9852m   44.4745u 
  995.60000p  699.9852m   44.2892u 
  995.70000p  699.9852m   44.1040u 
  995.80000p  699.9852m   43.9188u 
  995.90000p  699.9852m   43.7336u 
  996.00000p  699.9852m   43.5483u 
  996.10000p  699.9852m   43.3631u 
  996.20000p  699.9852m   43.1779u 
  996.30000p  699.9852m   42.9926u 
  996.40000p  699.9852m   42.8074u 
  996.50000p  699.9852m   42.6222u 
  996.60000p  699.9852m   42.4369u 
  996.70000p  699.9852m   42.2517u 
  996.80000p  699.9851m   42.0665u 
  996.90000p  699.9851m   41.8813u 
  997.00000p  699.9851m   41.6960u 
  997.10000p  699.9851m   41.5108u 
  997.20000p  699.9851m   41.3256u 
  997.30000p  699.9851m   41.1403u 
  997.40000p  699.9851m   40.9551u 
  997.50000p  699.9851m   40.7699u 
  997.60000p  699.9851m   40.5847u 
  997.70000p  699.9851m   40.3994u 
  997.80000p  699.9851m   40.2142u 
  997.90000p  699.9851m   40.0290u 
  998.00000p  699.9851m   39.8437u 
  998.10000p  699.9851m   39.6585u 
  998.20000p  699.9851m   39.4733u 
  998.30000p  699.9851m   39.2881u 
  998.40000p  699.9850m   39.1028u 
  998.50000p  699.9850m   38.9176u 
  998.60000p  699.9850m   38.7324u 
  998.70000p  699.9850m   38.5471u 
  998.80000p  699.9850m   38.3619u 
  998.90000p  699.9850m   38.1767u 
  999.00000p  699.9850m   37.9915u 
  999.10000p  699.9850m   37.8062u 
  999.20000p  699.9850m   37.6210u 
  999.30000p  699.9850m   37.4358u 
  999.40000p  699.9850m   37.2505u 
  999.50000p  699.9850m   37.0653u 
  999.60000p  699.9850m   36.8801u 
  999.70000p  699.9850m   36.6949u 
  999.80000p  699.9850m   36.5096u 
  999.90000p  699.9850m   36.3244u 
    1.00000n  699.9849m   36.1392u 
y

          ***** job concluded
 ******  
 * eda yan

 ****** job statistics summary tnom=  25.000 temp=  25.000 ******
  
 ******  Machine Information  ******
 CPU:
 model name	: Intel(R) Xeon(R) CPU E7- 8837  @ 2.67GHz
 cpu MHz	: 2663.941
  
 OS:
 Linux version 3.16.0-10-amd64 (debian-kernel@lists.debian.org) (gcc version 4.9.2 (Debian 4.9.2-10+deb8u2) ) #1 SMP Debian 3.16.81-1 (2020-01-17)


  ******  HSPICE Threads Information  ******

  Command Line Threads Count :     1
  Available CPU Count        :    32
  Actual Threads Count       :     1


  ******  Circuit Statistics  ******
  # nodes       =      68 # elements   =      33
  # resistors   =       0 # capacitors =       2 # inductors   =       0
  # mutual_inds =       0 # vccs       =       0 # vcvs        =       0
  # cccs        =       0 # ccvs       =       0 # volt_srcs   =       7
  # curr_srcs   =       0 # diodes     =       0 # bjts        =       0
  # jfets       =       0 # mosfets    =      24 # U elements  =       0
  # T elements  =       0 # W elements =       0 # B elements  =       0
  # S elements  =       0 # P elements =       0 # va device   =       0
  # vector_srcs =       0 # N elements =       0


  ******  Runtime Statistics (seconds)  ******

  analysis           time    # points   tot. iter  conv.iter
  op point           0.03           1           9
  transient          0.84       10001        1513         438 rev=        82
  readin             0.03
  errchk             0.02
  setup              0.00
  output             0.00


           peak memory used        312.56 megabytes
           total cpu time            1.08 seconds
           total elapsed time        0.63 seconds
           job started at     16:34:45 05/10/2020
           job ended   at     16:34:46 05/10/2020



>info:         ***** hspice job concluded
 lic: Release hspice token(s) 
 lic: total license checkout elapse time:        0.06(s)
