Using: /opt/synopsys/hspice/O-2018.09-SP2-2/hspice/linux64/hspice c17.sp
 ****** HSPICE -- O-2018.09-SP2-2 linux64 (May  9 2019) ******                  
  Copyright (c) 1986 - 2020 by Synopsys, Inc. All Rights Reserved.              
  This software and the associated documentation are proprietary
  to Synopsys, Inc. This software may only be used in accordance
  with the terms and conditions of a written license agreement with
  Synopsys, Inc. All other use, reproduction, or distribution of
  this software is strictly prohibited.
  Input File: c17.sp                                                            
  Command line options: /opt/synopsys/hspice/O-2018.09-SP2-2/hspice/linux64/hspice c17.sp
  Start time: Tue May 12 01:57:07 2020
 lic:  
 lic: FLEXlm: SDK_11.7.3 
 lic: USER:   mitsushij            HOSTNAME: sahand 
 lic: HOSTID: "80c16e72eecb"       PID:      75387 
 lic: Using FLEXlm license file: 
 lic: 1720@ics-lic2.usc.edu 
 lic: Checkout 1 hspice 
 lic: License/Maintenance for hspice will expire on 30-jun-2021/2019.06 
 lic: 1(in_use)/50(total) FLOATING license(s) on SERVER 1720@ics-lic2.usc.edu 
 lic:   
1****** HSPICE -- O-2018.09-SP2-2 linux64 (May  9 2019) ******                  
 ******  
 * eda yan

 ****** circuit name directory
 circuit number to circuit name directory
   number circuitname                     definition         multiplier
        0 main circuit
        1 xnand2_1.                       nand2              1.00 
        2 xnand2_2.                       nand2              1.00 
        3 xnand2_3.                       nand2              1.00 
        4 xnand2_4.                       nand2              1.00 
        5 xnand2_5.                       nand2              1.00 
        6 xnand2_6.                       nand2              1.00 
  **info** (c17.sp:24) DC voltage reset to initial transient source value in source 0:vn1. new dc=0.0000D+00
  **warning** (nmos:mn1 (./gate_inventory_gen.sp:18)) Warning:  Acde = 0.231197 may be too small in BSIM4 model with w=3.2e-08 l=1.6e-08.
  

  **warning** the following singular supplies were terminated to 1 meg resistor 
          supply       node1            node2
(c17.sp:10)vlo                     0:lo               defined in subckt 0                     0:0                defined in subckt 0               
      

Element variations(Local):   element              parameter
 **info** set option symb=1 internally to help for convergence.
 *****************************************************************
 ******  option summary
 ******
 runlvl  = 3         bypass  = 2.0000    
 **info** dc convergence successful at Newton-Raphson method 
 ******  
 * eda yan

 ****** operating point information tnom=  25.000 temp=  25.000 ******
 ****** operating point status is all       simulation time is     0.     
    node    =voltage      node    =voltage      node    =voltage

 +0:hi      = 700.0000m 0:lo      =   0.      0:n1      =   0.     
 +0:n10     = 699.9985m 0:n11     = 699.9985m 0:n16     = 699.7754m
 +0:n19     = 699.9518m 0:n2      =   0.      0:n22     = 425.4323u
 +0:n23     = 425.6903u 0:n3      =   0.      0:n6      =   0.     
 +0:n7      =   0.      1:n1      = 114.8070m 2:n1      = 114.8070m
 +3:n1      =  84.9180u 4:n1      = 504.3631m 5:n1      = 212.7914u
 +6:n1      = 212.8560u


 **** voltage sources

 subckt                                                                    
 element  0:vhi      0:vlo      0:vn1      0:vn2      0:vn3      0:vn6     
  volts    700.0000m    0.         0.         0.         0.         0.     
  current  -65.5073n    0.        14.5175p   14.2479p   14.9911p  473.5385f
  power     45.8551n    0.         0.         0.         0.         0.     

 subckt             
 element  0:vn7     
  volts      0.     
  current    5.7060p
  power      0.     

     total voltage source power dissipation=   45.8551n       watts




 **** mosfets


 subckt   xnand2_1   xnand2_1   xnand2_1   xnand2_1   xnand2_2   xnand2_2  
 element  1:mp2      1:mp1      1:mn1      1:mn2      2:mp2      2:mp1     
 model    0:pmos     0:pmos     0:nmos     0:nmos     0:pmos     0:pmos    
 region   Linear     Linear     Cutoff     Cutoff     Linear     Linear    
  id       -72.3004p  -72.3004p  109.0538p  108.3019p  -72.3372p  -72.3372p
  ibs     -4.040e-25 -4.040e-25 -114.8095f  1.169e-25 -4.040e-25 -4.040e-25
  ibd        2.1433a    2.1433a -709.9985f -124.6924f    2.1444a    2.1444a
  vgs     -700.0000m -700.0000m -114.8070m    0.      -700.0000m -700.0000m
  vds       -1.5428u   -1.5428u  585.1915m  114.8070m   -1.5436u   -1.5436u
  vbs        0.         0.      -114.8070m    0.         0.         0.     
  vth     -394.7685m -394.7685m  312.2149m  419.4744m -394.7685m -394.7685m
  vdsat   -294.2859m -294.2859m   41.6332m   42.7304m -294.2859m -294.2859m
  vod     -305.2315m -305.2315m -427.0219m -419.4744m -305.2315m -305.2315m
  beta     201.1169u  201.1169u    2.0841m    1.6250m  201.1169u  201.1169u
  gam eff  400.0000m  400.0000m  400.0000m  400.0000m  400.0000m  400.0000m
  gm       170.4247p  170.4247p    2.8621n    2.7858n  170.5114p  170.5114p
  gds       46.8618u   46.8618u  893.7207p  884.3711p   46.8618u   46.8618u
  gmb       43.7102p   43.7102p  674.8890p  708.2593p   43.7324p   43.7324p
  cdtot     32.2976a   32.2976a   18.2431a   22.1624a   32.2976a   32.2976a
  cgtot     24.9837a   24.9837a   13.0450a   16.0003a   24.9837a   24.9837a
  cstot     35.5210a   35.5210a   31.4088a   33.3260a   35.5210a   35.5210a
  cbtot     42.8408a   42.8408a   39.5494a   42.4307a   42.8408a   42.8408a
  cgs       14.5078a   14.5078a    6.7518a    7.7773a   14.5078a   14.5078a
  cgd       10.0562a   10.0562a    4.8220a    6.7517a   10.0562a   10.0562a



 subckt   xnand2_2   xnand2_2   xnand2_3   xnand2_3   xnand2_3   xnand2_3  
 element  2:mn1      2:mn2      3:mp2      3:mp1      3:mn1      3:mn2     
 model    0:nmos     0:nmos     0:pmos     0:pmos     0:nmos     0:nmos    
 region   Cutoff     Cutoff     Subth      Linear     Subth      Linear    
  id       109.0538p  108.3019p -118.2927f  -10.5229n   10.4667n   10.4770n
  ibs     -114.8095f  1.169e-25 -1.110e-28 -4.047e-25  -84.9264a  3.092e-25
  ibd     -709.9985f -124.6924f  311.6017a  311.6017a -709.7754f -117.9159a
  vgs     -114.8070m    0.        -1.5436u -700.0000m  -84.9180u  699.9985m
  vds      585.1915m  114.8070m -224.5726u -224.5726u  699.6905m   84.9180u
  vbs     -114.8070m    0.         0.         0.       -84.9180u    0.     
  vth      312.2149m  419.4744m -394.6967m -394.6967m  260.2480m  450.7090m
  vdsat     41.6332m   42.7304m  -47.2362m -294.3379m   41.1980m  208.6141m
  vod     -427.0219m -419.4744m  394.6951m -305.3033m -260.3329m  249.2894m
  beta       2.0841m    1.6250m  184.4803u  201.1340u    2.3526m    1.2071m
  gam eff  400.0000m  400.0000m  400.0000m  400.0000m  400.0000m  400.0000m
  gm         2.8621n    2.7858n    3.1967p   24.8058n  259.0929n   15.8362n
  gds      893.7207p  884.3711p  526.4469p   46.8528u   85.4228n  123.3661u
  gmb      674.8890p  708.2593p  720.9942f    6.3617n   58.6365n    4.6336n
  cdtot     18.2431a   22.1624a   23.7173a   32.2706a   18.2438a   32.4765a
  cgtot     13.0450a   16.0003a   16.9081a   24.9832a   14.0707a   25.0689a
  cstot     31.4088a   33.3260a   33.3013a   35.5360a   33.3253a   35.4710a
  cbtot     39.5494a   42.4307a   42.9207a   42.8389a   40.4411a   42.8830a
  cgs        6.7518a    7.7773a    7.7525a   14.5139a    7.7776a   14.4114a
  cgd        4.8220a    6.7517a    7.7505a   10.0495a    4.8220a   10.2928a



 subckt   xnand2_4   xnand2_4   xnand2_4   xnand2_4   xnand2_5   xnand2_5  
 element  4:mp2      4:mp1      4:mn1      4:mn2      5:mp2      5:mp1     
 model    0:pmos     0:pmos     0:nmos     0:nmos     0:pmos     0:pmos    
 region   Linear     Subth      Subth      Subth      Subth      Subth     
  id        -2.2585n  -25.3978f    2.2370n    2.2305n  -13.1404n  -13.0683n
  ibs     -4.043e-25    0.      -504.3657f  4.823e-25 -6.655e-25 -6.655e-25
  ibd       66.9363a   66.9363a -709.9518f -514.3631f  709.5746f  709.5746f
  vgs     -700.0000m   -1.5436u  195.6353m    0.      -224.5726u   -1.5428u
  vds      -48.1950u  -48.1950u  195.5887m  504.3631m -699.5746m -699.5746m
  vbs        0.         0.      -504.3631m    0.         0.         0.     
  vth     -394.7535m -394.7535m  481.3196m  313.4126m -169.3213m -169.3213m
  vdsat   -294.2968m  -47.2364m   43.1289m   41.6854m  -47.4609m  -47.4551m
  vod     -305.2465m  394.7520m -285.6843m -313.4126m  169.0967m  169.3197m
  beta     201.1205u  184.4605u    1.4141m    2.0781m  304.7957u  304.7939u
  gam eff  400.0000m  400.0000m  400.0000m  400.0000m  400.0000m  400.0000m
  gm         5.3237n  686.3504f   59.9760n   56.3924n  324.2666n  322.5529n
  gds       46.8599u  526.9161p   18.1612n   17.2752n  128.8555n  128.1705n
  gmb        1.3654n  154.8113f   10.6553n   13.2782n   63.2486n   62.9226n
  cdtot     32.2920a   23.7198a   21.1988a   19.0388a   18.2193a   18.2191a
  cgtot     24.9836a   16.9097a   17.9575a   14.3174a   13.9616a   13.9595a
  cstot     35.5241a   33.3013a   31.4210a   33.3262a   33.3084a   33.3064a
  cbtot     42.8404a   42.9217a   36.8844a   40.9902a   40.3763a   40.3765a
  cgs       14.5091a    7.7525a    9.0690a    7.7775a    7.7610a    7.7590a
  cgd       10.0548a    7.7520a    7.7776a    5.0686a    4.7964a    4.7963a



 subckt   xnand2_5   xnand2_5   xnand2_6   xnand2_6   xnand2_6   xnand2_6  
 element  5:mn1      5:mn2      6:mp2      6:mp1      6:mn1      6:mn2     
 model    0:nmos     0:nmos     0:pmos     0:pmos     0:nmos     0:nmos    
 region   Linear     Linear     Subth      Subth      Linear     Linear    
  id        26.2205n   26.2411n  -13.0833n  -13.1404n   26.2354n   26.2561n
  ibs     -212.8123a  3.083e-25 -6.655e-25 -6.655e-25 -212.8769a  3.093e-25
  ibd     -589.6592a -295.2739a  709.5743f  709.5743f -590.0160a -295.3634a
  vgs      699.7857m  699.7754m  -48.1950u -224.5726u  699.5626m  699.9518m
  vds      212.6409u  212.7914u -699.5743m -699.5743m  212.8343u  212.8560u
  vbs     -212.7914u    0.         0.         0.      -212.8560u    0.     
  vth      450.7140m  450.6742m -169.3214m -169.3214m  450.7140m  450.6742m
  vdsat    208.4750m  208.4911m  -47.4563m  -47.4609m  208.3316m  208.6046m
  vod      249.0717m  249.1012m  169.2732m  169.0968m  248.8486m  249.2776m
  beta       1.2073m    1.2074m  304.7942u  304.7956u    1.2076m    1.2072m
  gam eff  400.0000m  400.0000m  400.0000m  400.0000m  400.0000m  400.0000m
  gm        39.7145n   39.7363n  322.9099n  324.2658n   39.7974n   39.7115n
  gds      123.2783u  123.2879u  128.3132n  128.8552n  123.2365u  123.3208u
  gmb       11.6118n   11.6201n   62.9905n   63.2484n   11.6312n   11.6166n
  cdtot     32.4512a   32.4527a   18.2191a   18.2193a   32.4477a   32.4554a
  cgtot     25.0676a   25.0677a   13.9600a   13.9616a   25.0668a   25.0683a
  cstot     35.4816a   35.4833a   33.3068a   33.3084a   35.4828a   35.4824a
  cbtot     42.8788a   42.8819a   40.3764a   40.3763a   42.8788a   42.8819a
  cgs       14.4157a   14.4157a    7.7594a    7.7610a   14.4154a   14.4159a
  cgd       10.2870a   10.2871a    4.7963a    4.7964a   10.2863a   10.2876a



 ******
 * eda yan

 ****** transient analysis tnom=  25.000 temp=  25.000 ******
x

 time         voltage    voltage   
             n22        n23        
    0.        425.4323u  425.6903u 
   10.00000f  425.4323u  425.6903u 
   20.00000f  425.4323u  425.6903u 
   30.00000f  425.4323u  425.6903u 
   40.00000f  425.4323u  425.6903u 
   50.00000f  425.4323u  425.6903u 
   60.00000f  425.4323u  425.6903u 
   70.00000f  425.4323u  425.6903u 
   80.00000f  425.4323u  425.6903u 
   90.00000f  425.4323u  425.6903u 
  100.00000f  425.4323u  425.6903u 
  110.00000f  425.4323u  425.6903u 
  120.00000f  425.4323u  425.6903u 
  130.00000f  425.4323u  425.6903u 
  140.00000f  425.4323u  425.6903u 
  150.00000f  425.4323u  425.6903u 
  160.00000f  425.4323u  425.6903u 
  170.00000f  425.4323u  425.6903u 
  180.00000f  425.4323u  425.6903u 
  190.00000f  425.4323u  425.6903u 
  200.00000f  425.4323u  425.6903u 
  210.00000f  425.4323u  425.6903u 
  220.00000f  425.4323u  425.6903u 
  230.00000f  425.4323u  425.6903u 
  240.00000f  425.4323u  425.6903u 
  250.00000f  425.4323u  425.6903u 
  260.00000f  425.4323u  425.6903u 
  270.00000f  425.4323u  425.6903u 
  280.00000f  425.4323u  425.6903u 
  290.00000f  425.4323u  425.6903u 
  300.00000f  425.4323u  425.6903u 
  310.00000f  425.4323u  425.6903u 
  320.00000f  425.4323u  425.6903u 
  330.00000f  425.4323u  425.6903u 
  340.00000f  425.4323u  425.6903u 
  350.00000f  425.4323u  425.6903u 
  360.00000f  425.4323u  425.6903u 
  370.00000f  425.4323u  425.6903u 
  380.00000f  425.4323u  425.6903u 
  390.00000f  425.4323u  425.6903u 
  400.00000f  425.4323u  425.6903u 
  410.00000f  425.4323u  425.6903u 
  420.00000f  425.4323u  425.6903u 
  430.00000f  425.4323u  425.6903u 
  440.00000f  425.4323u  425.6903u 
  450.00000f  425.4323u  425.6903u 
  460.00000f  425.4323u  425.6903u 
  470.00000f  425.4323u  425.6903u 
  480.00000f  425.4323u  425.6903u 
  490.00000f  425.4323u  425.6903u 
  500.00000f  425.4323u  425.6903u 
  510.00000f  425.4323u  425.6903u 
  520.00000f  425.4323u  425.6903u 
  530.00000f  425.4323u  425.6903u 
  540.00000f  425.4323u  425.6903u 
  550.00000f  425.4323u  425.6903u 
  560.00000f  425.4323u  425.6903u 
  570.00000f  425.4323u  425.6903u 
  580.00000f  425.4323u  425.6903u 
  590.00000f  425.4323u  425.6903u 
  600.00000f  425.4323u  425.6903u 
  610.00000f  425.4323u  425.6903u 
  620.00000f  425.4323u  425.6903u 
  630.00000f  425.4323u  425.6903u 
  640.00000f  425.4323u  425.6903u 
  650.00000f  425.4323u  425.6903u 
  660.00000f  425.4323u  425.6903u 
  670.00000f  425.4323u  425.6903u 
  680.00000f  425.4323u  425.6903u 
  690.00000f  425.4323u  425.6903u 
  700.00000f  425.4323u  425.6903u 
  710.00000f  425.4323u  425.6903u 
  720.00000f  425.4323u  425.6903u 
  730.00000f  425.4323u  425.6903u 
  740.00000f  425.4323u  425.6903u 
  750.00000f  425.4323u  425.6903u 
  760.00000f  425.4323u  425.6903u 
  770.00000f  425.4323u  425.6903u 
  780.00000f  425.4323u  425.6903u 
  790.00000f  425.4323u  425.6903u 
  800.00000f  425.4323u  425.6903u 
  810.00000f  425.4323u  425.6903u 
  820.00000f  425.4323u  425.6903u 
  830.00000f  425.4323u  425.6903u 
  840.00000f  425.4323u  425.6903u 
  850.00000f  425.4323u  425.6903u 
  860.00000f  425.4323u  425.6903u 
  870.00000f  425.4323u  425.6903u 
  880.00000f  425.4323u  425.6903u 
  890.00000f  425.4323u  425.6903u 
  900.00000f  425.4323u  425.6903u 
  910.00000f  425.4323u  425.6903u 
  920.00000f  425.4323u  425.6903u 
  930.00000f  425.4323u  425.6903u 
  940.00000f  425.4323u  425.6903u 
  950.00000f  425.4323u  425.6903u 
  960.00000f  425.4323u  425.6903u 
  970.00000f  425.4323u  425.6903u 
  980.00000f  425.4323u  425.6903u 
  990.00000f  425.4323u  425.6903u 
    1.00000p  425.4323u  425.6903u 
    1.01000p  431.5532u  430.0529u 
    1.02000p  437.6741u  434.4154u 
    1.03000p  443.7951u  438.7779u 
    1.04000p  449.9160u  443.1405u 
    1.05000p  456.0369u  447.5030u 
    1.06000p  462.1578u  451.8655u 
    1.07000p  468.2788u  456.2280u 
    1.08000p  474.3997u  460.5906u 
    1.09000p  480.5206u  464.9531u 
    1.10000p  486.6416u  469.3156u 
    1.11000p  492.7625u  473.6782u 
    1.12000p  498.8834u  478.0407u 
    1.13000p  505.0044u  482.4032u 
    1.14000p  511.1253u  486.7658u 
    1.15000p  517.2462u  491.1283u 
    1.16000p  523.3671u  495.4908u 
    1.17000p  529.4881u  499.8534u 
    1.18000p  535.6090u  504.2159u 
    1.19000p  541.7299u  508.5784u 
    1.20000p  547.8509u  512.9410u 
    1.21000p  553.9718u  517.3035u 
    1.22000p  560.0927u  521.6660u 
    1.23000p  566.2136u  526.0286u 
    1.24000p  572.3346u  530.3911u 
    1.25000p  578.4555u  534.7536u 
    1.26000p  584.5764u  539.1161u 
    1.27000p  590.6974u  543.4787u 
    1.28000p  596.8183u  547.8412u 
    1.29000p  602.9392u  552.2037u 
    1.30000p  609.0601u  556.5663u 
    1.31000p  615.1811u  560.9288u 
    1.32000p  621.3020u  565.2913u 
    1.33000p  627.4229u  569.6539u 
    1.34000p  633.5439u  574.0164u 
    1.35000p  639.6648u  578.3789u 
    1.36000p  645.7857u  582.7415u 
    1.37000p  651.9067u  587.1040u 
    1.38000p  658.0276u  591.4665u 
    1.39000p  664.1485u  595.8291u 
    1.40000p  670.2694u  600.1916u 
    1.41000p  676.3904u  604.5541u 
    1.42000p  682.5113u  608.9166u 
    1.43000p  688.6322u  613.2792u 
    1.44000p  694.7532u  617.6417u 
    1.45000p  700.8741u  622.0042u 
    1.46000p  706.9950u  626.3668u 
    1.47000p  713.1159u  630.7293u 
    1.48000p  719.2369u  635.0918u 
    1.49000p  725.3578u  639.4544u 
    1.50000p  731.4787u  643.8169u 
    1.51000p  737.5997u  648.1794u 
    1.52000p  743.7206u  652.5420u 
    1.53000p  749.8415u  656.9045u 
    1.54000p  755.9624u  661.2670u 
    1.55000p  762.0834u  665.6296u 
    1.56000p  768.2043u  669.9921u 
    1.57000p  774.3252u  674.3546u 
    1.58000p  780.4462u  678.7172u 
    1.59000p  786.5671u  683.0797u 
    1.60000p  792.6880u  687.4422u 
    1.61000p  798.8090u  691.8047u 
    1.62000p  804.9299u  696.1673u 
    1.63000p  811.0508u  700.5298u 
    1.64000p  817.1717u  704.8923u 
    1.65000p  823.2927u  709.2549u 
    1.66000p  829.4136u  713.6174u 
    1.67000p  835.5345u  717.9799u 
    1.68000p  841.6555u  722.3425u 
    1.69000p  847.7764u  726.7050u 
    1.70000p  853.8973u  731.0675u 
    1.71000p  860.0182u  735.4301u 
    1.72000p  866.1392u  739.7926u 
    1.73000p  872.2601u  744.1551u 
    1.74000p  878.3810u  748.5177u 
    1.75000p  884.5020u  752.8802u 
    1.76000p  890.6229u  757.2427u 
    1.77000p  896.7438u  761.6053u 
    1.78000p  902.8647u  765.9678u 
    1.79000p  908.9857u  770.3303u 
    1.80000p  915.1066u  774.6928u 
    1.81000p  921.2275u  779.0554u 
    1.82000p  927.3485u  783.4179u 
    1.83000p  933.4694u  787.7804u 
    1.84000p  939.5903u  792.1430u 
    1.85000p  945.7113u  796.5055u 
    1.86000p  951.8322u  800.8680u 
    1.87000p  957.9531u  805.2306u 
    1.88000p  964.0740u  809.5931u 
    1.89000p  970.1950u  813.9556u 
    1.90000p  976.3159u  818.3182u 
    1.91000p  982.4368u  822.6807u 
    1.92000p  988.5578u  827.0432u 
    1.93000p  994.6787u  831.4058u 
    1.94000p    1.0008m  835.7683u 
    1.95000p    1.0069m  840.1308u 
    1.96000p    1.0130m  844.4934u 
    1.97000p    1.0192m  848.8559u 
    1.98000p    1.0253m  853.2184u 
    1.99000p    1.0314m  857.5809u 
    2.00000p    1.0375m  861.9435u 
    2.01000p    1.0428m  865.9420u 
    2.02000p    1.0480m  869.9406u 
    2.03000p    1.0532m  873.9391u 
    2.04000p    1.0584m  877.9377u 
    2.05000p    1.0637m  881.9363u 
    2.06000p    1.0689m  885.9348u 
    2.07000p    1.0741m  889.9334u 
    2.08000p    1.0794m  893.9319u 
    2.09000p    1.0846m  897.9305u 
    2.10000p    1.0898m  901.9290u 
    2.11000p    1.0951m  905.9276u 
    2.12000p    1.1003m  909.9262u 
    2.13000p    1.1055m  913.9247u 
    2.14000p    1.1108m  917.9233u 
    2.15000p    1.1160m  921.9218u 
    2.16000p    1.1212m  925.9204u 
    2.17000p    1.1265m  929.9189u 
    2.18000p    1.1317m  933.9175u 
    2.19000p    1.1369m  937.9161u 
    2.20000p    1.1421m  941.9146u 
    2.21000p    1.1474m  945.9132u 
    2.22000p    1.1526m  949.9117u 
    2.23000p    1.1578m  953.9103u 
    2.24000p    1.1631m  957.9089u 
    2.25000p    1.1683m  961.9074u 
    2.26000p    1.1735m  965.9060u 
    2.27000p    1.1788m  969.9045u 
    2.28000p    1.1840m  973.9031u 
    2.29000p    1.1892m  977.9016u 
    2.30000p    1.1945m  981.9002u 
    2.31000p    1.1997m  985.8988u 
    2.32000p    1.2049m  989.8973u 
    2.33000p    1.2102m  993.8959u 
    2.34000p    1.2154m  997.8944u 
    2.35000p    1.2206m    1.0019m 
    2.36000p    1.2251m    1.0054m 
    2.37000p    1.2270m    1.0072m 
    2.38000p    1.2288m    1.0091m 
    2.39000p    1.2307m    1.0109m 
    2.40000p    1.2325m    1.0127m 
    2.41000p    1.2344m    1.0146m 
    2.42000p    1.2363m    1.0164m 
    2.43000p    1.2381m    1.0182m 
    2.44000p    1.2400m    1.0200m 
    2.45000p    1.2419m    1.0219m 
    2.46000p    1.2437m    1.0237m 
    2.47000p    1.2456m    1.0255m 
    2.48000p    1.2475m    1.0274m 
    2.49000p    1.2493m    1.0292m 
    2.50000p    1.2512m    1.0310m 
    2.51000p    1.2530m    1.0328m 
    2.52000p    1.2549m    1.0347m 
    2.53000p    1.2568m    1.0365m 
    2.54000p    1.2586m    1.0383m 
    2.55000p    1.2605m    1.0402m 
    2.56000p    1.2624m    1.0420m 
    2.57000p    1.2642m    1.0438m 
    2.58000p    1.2661m    1.0456m 
    2.59000p    1.2679m    1.0475m 
    2.60000p    1.2698m    1.0493m 
    2.61000p    1.2717m    1.0511m 
    2.62000p    1.2735m    1.0530m 
    2.63000p    1.2754m    1.0548m 
    2.64000p    1.2773m    1.0566m 
    2.65000p    1.2791m    1.0584m 
    2.66000p    1.2810m    1.0603m 
    2.67000p    1.2828m    1.0621m 
    2.68000p    1.2847m    1.0639m 
    2.69000p    1.2866m    1.0658m 
    2.70000p    1.2884m    1.0676m 
    2.71000p    1.2903m    1.0694m 
    2.72000p    1.2922m    1.0712m 
    2.73000p    1.2940m    1.0731m 
    2.74000p    1.2959m    1.0749m 
    2.75000p    1.2977m    1.0767m 
    2.76000p    1.2996m    1.0786m 
    2.77000p    1.3015m    1.0804m 
    2.78000p    1.3033m    1.0822m 
    2.79000p    1.3052m    1.0840m 
    2.80000p    1.3071m    1.0859m 
    2.81000p    1.3089m    1.0877m 
    2.82000p    1.3108m    1.0895m 
    2.83000p    1.3126m    1.0914m 
    2.84000p    1.3145m    1.0932m 
    2.85000p    1.3164m    1.0950m 
    2.86000p    1.3182m    1.0968m 
    2.87000p    1.3201m    1.0987m 
    2.88000p    1.3220m    1.1005m 
    2.89000p    1.3238m    1.1023m 
    2.90000p    1.3257m    1.1042m 
    2.91000p    1.3275m    1.1060m 
    2.92000p    1.3294m    1.1078m 
    2.93000p    1.3313m    1.1096m 
    2.94000p    1.3331m    1.1115m 
    2.95000p    1.3350m    1.1133m 
    2.96000p    1.3369m    1.1151m 
    2.97000p    1.3387m    1.1170m 
    2.98000p    1.3406m    1.1188m 
    2.99000p    1.3425m    1.1206m 
    3.00000p    1.3443m    1.1224m 
    3.01000p    1.3462m    1.1243m 
    3.02000p    1.3480m    1.1261m 
    3.03000p    1.3499m    1.1279m 
    3.04000p    1.3518m    1.1298m 
    3.05000p    1.3536m    1.1316m 
    3.06000p    1.3555m    1.1334m 
    3.07000p    1.3574m    1.1352m 
    3.08000p    1.3592m    1.1371m 
    3.09000p    1.3611m    1.1389m 
    3.10000p    1.3629m    1.1407m 
    3.11000p    1.3648m    1.1426m 
    3.12000p    1.3667m    1.1444m 
    3.13000p    1.3685m    1.1462m 
    3.14000p    1.3704m    1.1480m 
    3.15000p    1.3723m    1.1499m 
    3.16000p    1.3741m    1.1517m 
    3.17000p    1.3760m    1.1535m 
    3.18000p    1.3778m    1.1554m 
    3.19000p    1.3797m    1.1572m 
    3.20000p    1.3816m    1.1590m 
    3.21000p    1.3834m    1.1608m 
    3.22000p    1.3853m    1.1627m 
    3.23000p    1.3872m    1.1645m 
    3.24000p    1.3890m    1.1663m 
    3.25000p    1.3909m    1.1682m 
    3.26000p    1.3927m    1.1700m 
    3.27000p    1.3946m    1.1718m 
    3.28000p    1.3965m    1.1736m 
    3.29000p    1.3983m    1.1755m 
    3.30000p    1.4002m    1.1773m 
    3.31000p    1.4021m    1.1791m 
    3.32000p    1.4039m    1.1810m 
    3.33000p    1.4058m    1.1828m 
    3.34000p    1.4076m    1.1846m 
    3.35000p    1.4095m    1.1864m 
    3.36000p    1.4114m    1.1883m 
    3.37000p    1.4132m    1.1901m 
    3.38000p    1.4151m    1.1919m 
    3.39000p    1.4170m    1.1938m 
    3.40000p    1.4188m    1.1956m 
    3.41000p    1.4207m    1.1974m 
    3.42000p    1.4226m    1.1992m 
    3.43000p    1.4244m    1.2011m 
    3.44000p    1.4263m    1.2029m 
    3.45000p    1.4281m    1.2047m 
    3.46000p    1.4300m    1.2066m 
    3.47000p    1.4319m    1.2084m 
    3.48000p    1.4337m    1.2102m 
    3.49000p    1.4354m    1.2118m 
    3.50000p    1.4346m    1.2103m 
    3.51000p    1.4338m    1.2088m 
    3.52000p    1.4330m    1.2073m 
    3.53000p    1.4322m    1.2058m 
    3.54000p    1.4314m    1.2044m 
    3.55000p    1.4306m    1.2029m 
    3.56000p    1.4298m    1.2014m 
    3.57000p    1.4290m    1.1999m 
    3.58000p    1.4282m    1.1984m 
    3.59000p    1.4274m    1.1969m 
    3.60000p    1.4266m    1.1954m 
    3.61000p    1.4258m    1.1940m 
    3.62000p    1.4250m    1.1925m 
    3.63000p    1.4242m    1.1910m 
    3.64000p    1.4234m    1.1895m 
    3.65000p    1.4226m    1.1880m 
    3.66000p    1.4218m    1.1865m 
    3.67000p    1.4210m    1.1850m 
    3.68000p    1.4202m    1.1836m 
    3.69000p    1.4194m    1.1821m 
    3.70000p    1.4186m    1.1806m 
    3.71000p    1.4178m    1.1791m 
    3.72000p    1.4170m    1.1776m 
    3.73000p    1.4162m    1.1761m 
    3.74000p    1.4154m    1.1746m 
    3.75000p    1.4146m    1.1731m 
    3.76000p    1.4138m    1.1717m 
    3.77000p    1.4130m    1.1702m 
    3.78000p    1.4122m    1.1687m 
    3.79000p    1.4114m    1.1672m 
    3.80000p    1.4106m    1.1657m 
    3.81000p    1.4098m    1.1642m 
    3.82000p    1.4090m    1.1627m 
    3.83000p    1.4082m    1.1613m 
    3.84000p    1.4074m    1.1598m 
    3.85000p    1.4066m    1.1583m 
    3.86000p    1.4058m    1.1568m 
    3.87000p    1.4050m    1.1553m 
    3.88000p    1.4042m    1.1538m 
    3.89000p    1.4034m    1.1523m 
    3.90000p    1.4026m    1.1508m 
    3.91000p    1.4018m    1.1494m 
    3.92000p    1.4010m    1.1479m 
    3.93000p    1.4002m    1.1464m 
    3.94000p    1.3994m    1.1449m 
    3.95000p    1.3986m    1.1434m 
    3.96000p    1.3978m    1.1419m 
    3.97000p    1.3969m    1.1404m 
    3.98000p    1.3961m    1.1390m 
    3.99000p    1.3953m    1.1375m 
    4.00000p    1.3945m    1.1360m 
    4.01000p    1.3937m    1.1345m 
    4.02000p    1.3929m    1.1330m 
    4.03000p    1.3921m    1.1315m 
    4.04000p    1.3913m    1.1300m 
    4.05000p    1.3905m    1.1286m 
    4.06000p    1.3897m    1.1271m 
    4.07000p    1.3889m    1.1256m 
    4.08000p    1.3881m    1.1241m 
    4.09000p    1.3873m    1.1226m 
    4.10000p    1.3865m    1.1211m 
    4.11000p    1.3857m    1.1196m 
    4.12000p    1.3849m    1.1181m 
    4.13000p    1.3841m    1.1167m 
    4.14000p    1.3833m    1.1152m 
    4.15000p    1.3825m    1.1137m 
    4.16000p    1.3817m    1.1122m 
    4.17000p    1.3809m    1.1107m 
    4.18000p    1.3801m    1.1092m 
    4.19000p    1.3793m    1.1077m 
    4.20000p    1.3785m    1.1063m 
    4.21000p    1.3777m    1.1048m 
    4.22000p    1.3769m    1.1033m 
    4.23000p    1.3761m    1.1018m 
    4.24000p    1.3753m    1.1003m 
    4.25000p    1.3745m    1.0988m 
    4.26000p    1.3737m    1.0973m 
    4.27000p    1.3729m    1.0959m 
    4.28000p    1.3721m    1.0944m 
    4.29000p    1.3713m    1.0929m 
    4.30000p    1.3705m    1.0914m 
    4.31000p    1.3697m    1.0899m 
    4.32000p    1.3689m    1.0884m 
    4.33000p    1.3681m    1.0869m 
    4.34000p    1.3673m    1.0854m 
    4.35000p    1.3665m    1.0840m 
    4.36000p    1.3657m    1.0825m 
    4.37000p    1.3649m    1.0810m 
    4.38000p    1.3641m    1.0795m 
    4.39000p    1.3633m    1.0780m 
    4.40000p    1.3625m    1.0765m 
    4.41000p    1.3617m    1.0750m 
    4.42000p    1.3609m    1.0736m 
    4.43000p    1.3601m    1.0721m 
    4.44000p    1.3593m    1.0706m 
    4.45000p    1.3585m    1.0691m 
    4.46000p    1.3577m    1.0676m 
    4.47000p    1.3569m    1.0661m 
    4.48000p    1.3561m    1.0646m 
    4.49000p    1.3553m    1.0632m 
    4.50000p    1.3545m    1.0617m 
    4.51000p    1.3537m    1.0602m 
    4.52000p    1.3529m    1.0587m 
    4.53000p    1.3521m    1.0572m 
    4.54000p    1.3513m    1.0557m 
    4.55000p    1.3505m    1.0542m 
    4.56000p    1.3497m    1.0527m 
    4.57000p    1.3489m    1.0513m 
    4.58000p    1.3481m    1.0498m 
    4.59000p    1.3473m    1.0483m 
    4.60000p    1.3465m    1.0468m 
    4.61000p    1.3457m    1.0453m 
    4.62000p    1.3449m    1.0438m 
    4.63000p    1.3441m    1.0423m 
    4.64000p    1.3433m    1.0409m 
    4.65000p    1.3425m    1.0394m 
    4.66000p    1.3417m    1.0379m 
    4.67000p    1.3409m    1.0364m 
    4.68000p    1.3401m    1.0349m 
    4.69000p    1.3393m    1.0334m 
    4.70000p    1.3385m    1.0319m 
    4.71000p    1.3377m    1.0304m 
    4.72000p    1.3369m    1.0290m 
    4.73000p    1.3361m    1.0275m 
    4.74000p    1.3353m    1.0260m 
    4.75000p    1.3345m    1.0245m 
    4.76000p    1.3337m    1.0230m 
    4.77000p    1.3329m    1.0215m 
    4.78000p    1.3321m    1.0200m 
    4.79000p    1.3313m    1.0186m 
    4.80000p    1.3305m    1.0171m 
    4.81000p    1.3297m    1.0156m 
    4.82000p    1.3289m    1.0141m 
    4.83000p    1.3281m    1.0126m 
    4.84000p    1.3273m    1.0111m 
    4.85000p    1.3265m    1.0096m 
    4.86000p    1.3257m    1.0082m 
    4.87000p    1.3249m    1.0067m 
    4.88000p    1.3241m    1.0052m 
    4.89000p    1.3233m    1.0037m 
    4.90000p    1.3225m    1.0022m 
    4.91000p    1.3217m    1.0007m 
    4.92000p    1.3209m  999.2341u 
    4.93000p    1.3201m  997.7477u 
    4.94000p    1.3193m  996.2613u 
    4.95000p    1.3185m  994.7749u 
    4.96000p    1.3177m  993.2885u 
    4.97000p    1.3169m  991.8020u 
    4.98000p    1.3161m  990.3156u 
    4.99000p    1.3153m  988.8292u 
    5.00000p    1.3145m  987.3428u 
    5.01000p    1.3137m  985.8563u 
    5.02000p    1.3129m  984.3699u 
    5.03000p    1.3121m  982.8835u 
    5.04000p    1.3113m  981.3971u 
    5.05000p    1.3105m  979.9107u 
    5.06000p    1.3096m  978.4242u 
    5.07000p    1.3088m  976.9378u 
    5.08000p    1.3080m  975.4514u 
    5.09000p    1.3072m  973.9650u 
    5.10000p    1.3064m  972.4785u 
    5.11000p    1.3056m  970.9921u 
    5.12000p    1.3048m  969.5057u 
    5.13000p    1.3040m  968.0193u 
    5.14000p    1.3032m  966.5329u 
    5.15000p    1.3024m  965.0464u 
    5.16000p    1.3016m  963.5600u 
    5.17000p    1.3008m  962.0736u 
    5.18000p    1.3000m  960.5872u 
    5.19000p    1.2992m  959.1007u 
    5.20000p    1.2984m  957.6143u 
    5.21000p    1.2976m  956.1279u 
    5.22000p    1.2968m  954.6415u 
    5.23000p    1.2960m  953.1551u 
    5.24000p    1.2952m  951.6686u 
    5.25000p    1.2944m  950.1822u 
    5.26000p    1.2936m  948.6958u 
    5.27000p    1.2928m  947.2094u 
    5.28000p    1.2920m  945.7229u 
    5.29000p    1.2912m  944.2365u 
    5.30000p    1.2904m  942.7501u 
    5.31000p    1.2896m  941.2637u 
    5.32000p    1.2888m  939.7773u 
    5.33000p    1.2880m  938.2908u 
    5.34000p    1.2872m  936.8044u 
    5.35000p    1.2864m  935.3180u 
    5.36000p    1.2856m  933.8316u 
    5.37000p    1.2848m  932.3452u 
    5.38000p    1.2840m  930.8587u 
    5.39000p    1.2832m  929.3723u 
    5.40000p    1.2824m  927.8859u 
    5.41000p    1.2816m  926.3995u 
    5.42000p    1.2808m  924.9130u 
    5.43000p    1.2800m  923.4266u 
    5.44000p    1.2792m  921.9402u 
    5.45000p    1.2784m  920.4538u 
    5.46000p    1.2776m  918.9674u 
    5.47000p    1.2768m  917.4809u 
    5.48000p    1.2760m  915.9945u 
    5.49000p    1.2752m  914.5081u 
    5.50000p    1.2744m  913.0217u 
    5.51000p    1.2736m  911.5352u 
    5.52000p    1.2728m  910.0488u 
    5.53000p    1.2720m  908.5624u 
    5.54000p    1.2712m  907.0760u 
    5.55000p    1.2704m  905.5896u 
    5.56000p    1.2696m  904.1031u 
    5.57000p    1.2688m  902.6167u 
    5.58000p    1.2680m  901.1303u 
    5.59000p    1.2672m  899.6439u 
    5.60000p    1.2664m  898.1574u 
    5.61000p    1.2656m  896.6710u 
    5.62000p    1.2648m  895.1846u 
    5.63000p    1.2640m  893.6982u 
    5.64000p    1.2632m  892.2118u 
    5.65000p    1.2624m  890.7253u 
    5.66000p    1.2616m  889.2389u 
    5.67000p    1.2608m  887.7525u 
    5.68000p    1.2600m  886.2661u 
    5.69000p    1.2592m  884.7796u 
    5.70000p    1.2584m  883.2932u 
    5.71000p    1.2576m  881.8068u 
    5.72000p    1.2568m  880.3204u 
    5.73000p    1.2560m  878.8340u 
    5.74000p    1.2552m  877.3475u 
    5.75000p    1.2544m  875.8611u 
    5.76000p    1.2536m  874.3747u 
    5.77000p    1.2528m  872.8883u 
    5.78000p    1.2520m  871.4018u 
    5.79000p    1.2512m  869.9154u 
    5.80000p    1.2504m  868.4290u 
    5.81000p    1.2496m  866.9426u 
    5.82000p    1.2488m  865.4562u 
    5.83000p    1.2480m  863.9697u 
    5.84000p    1.2472m  862.4833u 
    5.85000p    1.2464m  860.9969u 
    5.86000p    1.2456m  859.5105u 
    5.87000p    1.2448m  858.0240u 
    5.88000p    1.2440m  856.5376u 
    5.89000p    1.2432m  855.0512u 
    5.90000p    1.2424m  853.5648u 
    5.91000p    1.2416m  852.0784u 
    5.92000p    1.2408m  850.5919u 
    5.93000p    1.2400m  849.1055u 
    5.94000p    1.2392m  847.6191u 
    5.95000p    1.2384m  846.1327u 
    5.96000p    1.2376m  844.6462u 
    5.97000p    1.2368m  843.1598u 
    5.98000p    1.2360m  841.6734u 
    5.99000p    1.2352m  840.1870u 
    6.00000p    1.2344m  838.7006u 
    6.01000p    1.2336m  837.2141u 
    6.02000p    1.2328m  835.7277u 
    6.03000p    1.2320m  834.2413u 
    6.04000p    1.2312m  832.7549u 
    6.05000p    1.2304m  831.2684u 
    6.06000p    1.2296m  829.7820u 
    6.07000p    1.2288m  828.2956u 
    6.08000p    1.2280m  826.8092u 
    6.09000p    1.2272m  825.3228u 
    6.10000p    1.2264m  823.8363u 
    6.11000p    1.2256m  822.3499u 
    6.12000p    1.2248m  820.8635u 
    6.13000p    1.2240m  819.3771u 
    6.14000p    1.2232m  817.8906u 
    6.15000p    1.2223m  816.4042u 
    6.16000p    1.2215m  814.9178u 
    6.17000p    1.2207m  813.4314u 
    6.18000p    1.2199m  811.9450u 
    6.19000p    1.2191m  810.4585u 
    6.20000p    1.2183m  808.9721u 
    6.21000p    1.2175m  807.4857u 
    6.22000p    1.2167m  805.9993u 
    6.23000p    1.2159m  804.5128u 
    6.24000p    1.2151m  803.0264u 
    6.25000p    1.2143m  801.5400u 
    6.26000p    1.2135m  800.0536u 
    6.27000p    1.2127m  798.5672u 
    6.28000p    1.2119m  797.0807u 
    6.29000p    1.2111m  795.5943u 
    6.30000p    1.2103m  794.1079u 
    6.31000p    1.2095m  792.6215u 
    6.32000p    1.2087m  791.1350u 
    6.33000p    1.2079m  789.6486u 
    6.34000p    1.2071m  788.1622u 
    6.35000p    1.2063m  786.6758u 
    6.36000p    1.2055m  785.1894u 
    6.37000p    1.2047m  783.7029u 
    6.38000p    1.2039m  782.2165u 
    6.39000p    1.2031m  780.7301u 
    6.40000p    1.2023m  779.2437u 
    6.41000p    1.2015m  777.7572u 
    6.42000p    1.2007m  776.2708u 
    6.43000p    1.1999m  774.7844u 
    6.44000p    1.1991m  773.2980u 
    6.45000p    1.1983m  771.8116u 
    6.46000p    1.1975m  770.3251u 
    6.47000p    1.1967m  768.8387u 
    6.48000p    1.1959m  767.3523u 
    6.49000p    1.1951m  765.8659u 
    6.50000p    1.1943m  764.3794u 
    6.51000p    1.1935m  762.8930u 
    6.52000p    1.1927m  761.4066u 
    6.53000p    1.1919m  759.9202u 
    6.54000p    1.1911m  758.4338u 
    6.55000p    1.1903m  756.9473u 
    6.56000p    1.1895m  755.4609u 
    6.57000p    1.1887m  753.9745u 
    6.58000p    1.1879m  752.4881u 
    6.59000p    1.1871m  751.0016u 
    6.60000p    1.1863m  749.5152u 
    6.61000p    1.1855m  748.0288u 
    6.62000p    1.1847m  746.5424u 
    6.63000p    1.1839m  745.0560u 
    6.64000p    1.1831m  743.5695u 
    6.65000p    1.1823m  742.0831u 
    6.66000p    1.1815m  740.5967u 
    6.67000p    1.1807m  739.1103u 
    6.68000p    1.1799m  737.6238u 
    6.69000p    1.1791m  736.1374u 
    6.70000p    1.1783m  734.6510u 
    6.71000p    1.1775m  733.1646u 
    6.72000p    1.1767m  731.6782u 
    6.73000p    1.1759m  730.1917u 
    6.74000p    1.1751m  728.7053u 
    6.75000p    1.1743m  727.2189u 
    6.76000p    1.1735m  725.7325u 
    6.77000p    1.1727m  724.2460u 
    6.78000p    1.1719m  722.7596u 
    6.79000p    1.1711m  721.2732u 
    6.80000p    1.1703m  719.7868u 
    6.81000p    1.1695m  718.3004u 
    6.82000p    1.1687m  716.8139u 
    6.83000p    1.1679m  715.3275u 
    6.84000p    1.1671m  713.8411u 
    6.85000p    1.1663m  712.3547u 
    6.86000p    1.1655m  710.8682u 
    6.87000p    1.1647m  709.3818u 
    6.88000p    1.1639m  707.8954u 
    6.89000p    1.1631m  706.4090u 
    6.90000p    1.1623m  704.9226u 
    6.91000p    1.1615m  703.4361u 
    6.92000p    1.1607m  701.9497u 
    6.93000p    1.1599m  700.4633u 
    6.94000p    1.1591m  698.9769u 
    6.95000p    1.1583m  697.4904u 
    6.96000p    1.1575m  696.0040u 
    6.97000p    1.1554m  690.2072u 
    6.98000p    1.1528m  682.8522u 
    6.99000p    1.1502m  675.4972u 
    7.00000p    1.1476m  668.1422u 
    7.01000p    1.1450m  660.7872u 
    7.02000p    1.1424m  653.4322u 
    7.03000p    1.1398m  646.0772u 
    7.04000p    1.1372m  638.7222u 
    7.05000p    1.1346m  631.3672u 
    7.06000p    1.1320m  624.0122u 
    7.07000p    1.1294m  616.6572u 
    7.08000p    1.1268m  609.3022u 
    7.09000p    1.1242m  601.9472u 
    7.10000p    1.1217m  594.5922u 
    7.11000p    1.1191m  587.2372u 
    7.12000p    1.1165m  579.8822u 
    7.13000p    1.1139m  572.5272u 
    7.14000p    1.1113m  565.1722u 
    7.15000p    1.1087m  557.8172u 
    7.16000p    1.1061m  550.4622u 
    7.17000p    1.1035m  543.1072u 
    7.18000p    1.1009m  535.7522u 
    7.19000p    1.0983m  528.3972u 
    7.20000p    1.0957m  521.0422u 
    7.21000p    1.0931m  513.6872u 
    7.22000p    1.0905m  506.3322u 
    7.23000p    1.0879m  498.9772u 
    7.24000p    1.0854m  491.6222u 
    7.25000p    1.0828m  484.2672u 
    7.26000p    1.0802m  476.9122u 
    7.27000p    1.0776m  469.5572u 
    7.28000p    1.0750m  462.2022u 
    7.29000p    1.0724m  454.8472u 
    7.30000p    1.0698m  447.4922u 
    7.31000p    1.0672m  440.1372u 
    7.32000p    1.0646m  432.7822u 
    7.33000p    1.0620m  425.4272u 
    7.34000p    1.0594m  418.0722u 
    7.35000p    1.0568m  410.7172u 
    7.36000p    1.0542m  403.3622u 
    7.37000p    1.0517m  396.0072u 
    7.38000p    1.0491m  388.6522u 
    7.39000p    1.0465m  381.2972u 
    7.40000p    1.0439m  373.9422u 
    7.41000p    1.0413m  366.5872u 
    7.42000p    1.0387m  359.2322u 
    7.43000p    1.0361m  351.8772u 
    7.44000p    1.0335m  344.5222u 
    7.45000p    1.0309m  337.1672u 
    7.46000p    1.0283m  329.8122u 
    7.47000p    1.0257m  322.4572u 
    7.48000p    1.0231m  315.1022u 
    7.49000p    1.0205m  307.7472u 
    7.50000p    1.0179m  300.3922u 
    7.51000p    1.0154m  293.0372u 
    7.52000p    1.0128m  285.6822u 
    7.53000p    1.0102m  278.3272u 
    7.54000p    1.0076m  270.9722u 
    7.55000p    1.0050m  263.6172u 
    7.56000p    1.0024m  256.2623u 
    7.57000p  999.7968u  248.9073u 
    7.58000p  997.2041u  241.5523u 
    7.59000p  994.6114u  234.1973u 
    7.60000p  992.0187u  226.8423u 
    7.61000p  989.4260u  219.4873u 
    7.62000p  986.8333u  212.1323u 
    7.63000p  984.2406u  204.7773u 
    7.64000p  981.6479u  197.4223u 
    7.65000p  979.0552u  190.0673u 
    7.66000p  976.4625u  182.7123u 
    7.67000p  973.8698u  175.3573u 
    7.68000p  971.2771u  168.0023u 
    7.69000p  968.6844u  160.6473u 
    7.70000p  966.0917u  153.2923u 
    7.71000p  963.4990u  145.9373u 
    7.72000p  960.9063u  138.5823u 
    7.73000p  958.3136u  131.2273u 
    7.74000p  955.7209u  123.8723u 
    7.75000p  953.1282u  116.5173u 
    7.76000p  950.5355u  109.1623u 
    7.77000p  947.9428u  101.8073u 
    7.78000p  945.3501u   94.4523u 
    7.79000p  942.7574u   87.0973u 
    7.80000p  940.1647u   79.7423u 
    7.81000p  937.5720u   72.3873u 
    7.82000p  934.9793u   65.0323u 
    7.83000p  932.3866u   57.6773u 
    7.84000p  929.7939u   50.3223u 
    7.85000p  927.2012u   42.9673u 
    7.86000p  924.6085u   35.6123u 
    7.87000p  922.0158u   28.2573u 
    7.88000p  919.4231u   20.9023u 
    7.89000p  916.8304u   13.5473u 
    7.90000p  914.2376u    6.1923u 
    7.91000p  911.6449u   -1.1627u 
    7.92000p  909.0522u   -8.5177u 
    7.93000p  906.4595u  -15.8727u 
    7.94000p  903.8668u  -23.2277u 
    7.95000p  901.2741u  -30.5827u 
    7.96000p  898.6814u  -37.9377u 
    7.97000p  896.0887u  -45.2927u 
    7.98000p  893.4960u  -52.6477u 
    7.99000p  890.9033u  -60.0027u 
    8.00000p  888.3106u  -67.3577u 
    8.01000p  885.7179u  -74.7127u 
    8.02000p  883.1252u  -82.0677u 
    8.03000p  880.5325u  -89.4227u 
    8.04000p  877.9398u  -96.7777u 
    8.05000p  875.3471u -104.1327u 
    8.06000p  872.7544u -111.4877u 
    8.07000p  870.1617u -118.8427u 
    8.08000p  867.5690u -126.1977u 
    8.09000p  864.9763u -133.5527u 
    8.10000p  862.3836u -140.9077u 
    8.11000p  859.7909u -148.2627u 
    8.12000p  857.1982u -155.6177u 
    8.13000p  854.6055u -162.9727u 
    8.14000p  852.0128u -170.3277u 
    8.15000p  849.4201u -177.6827u 
    8.16000p  846.8274u -185.0377u 
    8.17000p  844.2347u -192.3927u 
    8.18000p  841.6420u -199.7477u 
    8.19000p  839.0493u -207.1027u 
    8.20000p  836.4566u -214.4577u 
    8.21000p  833.8639u -221.8127u 
    8.22000p  831.2712u -229.1677u 
    8.23000p  828.6785u -236.5227u 
    8.24000p  826.0858u -243.8777u 
    8.25000p  823.4931u -251.2327u 
    8.26000p  820.9004u -258.5877u 
    8.27000p  818.3077u -265.9427u 
    8.28000p  815.7150u -273.2977u 
    8.29000p  813.1223u -280.6527u 
    8.30000p  810.5296u -288.0077u 
    8.31000p  807.9369u -295.3627u 
    8.32000p  805.3442u -302.7177u 
    8.33000p  802.7515u -310.0727u 
    8.34000p  800.1588u -317.4277u 
    8.35000p  797.5661u -324.7827u 
    8.36000p  794.9734u -332.1376u 
    8.37000p  792.3807u -339.4926u 
    8.38000p  789.7880u -346.8476u 
    8.39000p  787.1952u -354.2026u 
    8.40000p  784.6025u -361.5576u 
    8.41000p  782.0098u -368.9126u 
    8.42000p  779.4171u -376.2676u 
    8.43000p  776.8244u -383.6226u 
    8.44000p  774.2317u -390.9776u 
    8.45000p  771.6390u -398.3326u 
    8.46000p  769.0463u -405.6876u 
    8.47000p  766.4536u -413.0426u 
    8.48000p  763.8609u -420.3976u 
    8.49000p  761.2682u -427.7526u 
    8.50000p  758.6755u -435.1076u 
    8.51000p  756.0828u -442.4626u 
    8.52000p  753.4901u -449.8176u 
    8.53000p  750.8974u -457.1726u 
    8.54000p  748.3047u -464.5276u 
    8.55000p  745.7120u -471.8826u 
    8.56000p  743.1193u -479.2376u 
    8.57000p  740.5266u -486.5926u 
    8.58000p  737.9339u -493.9476u 
    8.59000p  735.3412u -501.3026u 
    8.60000p  732.7485u -508.6576u 
    8.61000p  730.1558u -516.0126u 
    8.62000p  727.5631u -523.3676u 
    8.63000p  724.9704u -530.7226u 
    8.64000p  722.3777u -538.0776u 
    8.65000p  719.7850u -545.4326u 
    8.66000p  717.1923u -552.7876u 
    8.67000p  714.5996u -560.1426u 
    8.68000p  712.0069u -567.4976u 
    8.69000p  709.4142u -574.8526u 
    8.70000p  706.8215u -582.2076u 
    8.71000p  704.2288u -589.5626u 
    8.72000p  701.6361u -596.9176u 
    8.73000p  699.0434u -604.2726u 
    8.74000p  696.4507u -611.6276u 
    8.75000p  693.8580u -618.9826u 
    8.76000p  691.2653u -626.3376u 
    8.77000p  688.6726u -633.6926u 
    8.78000p  686.0799u -641.0476u 
    8.79000p  683.4872u -648.4026u 
    8.80000p  680.8945u -655.7576u 
    8.81000p  678.3018u -663.1126u 
    8.82000p  675.7091u -670.4676u 
    8.83000p  673.1164u -677.8226u 
    8.84000p  670.5237u -685.1776u 
    8.85000p  667.9310u -692.5326u 
    8.86000p  665.3383u -699.8876u 
    8.87000p  662.7456u -707.2426u 
    8.88000p  660.1528u -714.5976u 
    8.89000p  657.5601u -721.9526u 
    8.90000p  654.9674u -729.3076u 
    8.91000p  652.3747u -736.6626u 
    8.92000p  649.7820u -744.0176u 
    8.93000p  647.1893u -751.3726u 
    8.94000p  644.5966u -758.7276u 
    8.95000p  642.0039u -766.0826u 
    8.96000p  639.4112u -773.4376u 
    8.97000p  636.8185u -780.7926u 
    8.98000p  634.2258u -788.1476u 
    8.99000p  631.6331u -795.5026u 
    9.00000p  629.0404u -802.8576u 
    9.01000p  626.4477u -810.2126u 
    9.02000p  623.8550u -817.5676u 
    9.03000p  621.2623u -824.9226u 
    9.04000p  618.6696u -832.2776u 
    9.05000p  616.0769u -839.6326u 
    9.06000p  613.4842u -846.9876u 
    9.07000p  610.8915u -854.3426u 
    9.08000p  608.2988u -861.6976u 
    9.09000p  605.7061u -869.0526u 
    9.10000p  603.1134u -876.4076u 
    9.11000p  600.5207u -883.7626u 
    9.12000p  597.9280u -891.1176u 
    9.13000p  595.3353u -898.4726u 
    9.14000p  592.7426u -905.8276u 
    9.15000p  590.1499u -913.1825u 
    9.16000p  587.5572u -920.5375u 
    9.17000p  584.9645u -927.8925u 
    9.18000p  582.3718u -935.2475u 
    9.19000p  579.7791u -942.6025u 
    9.20000p  577.1864u -949.9575u 
    9.21000p  574.5937u -957.3125u 
    9.22000p  572.0010u -964.6675u 
    9.23000p  569.4083u -972.0225u 
    9.24000p  566.8156u -979.3775u 
    9.25000p  564.2229u -986.7325u 
    9.26000p  561.6302u -994.0875u 
    9.27000p  559.0375u   -1.0014m 
    9.28000p  556.4448u   -1.0088m 
    9.29000p  553.8521u   -1.0162m 
    9.30000p  551.2594u   -1.0235m 
    9.31000p  548.6667u   -1.0309m 
    9.32000p  546.0740u   -1.0382m 
    9.33000p  543.4813u   -1.0456m 
    9.34000p  540.8886u   -1.0529m 
    9.35000p  538.2959u   -1.0603m 
    9.36000p  535.7031u   -1.0676m 
    9.37000p  533.1104u   -1.0750m 
    9.38000p  530.5177u   -1.0823m 
    9.39000p  527.9250u   -1.0897m 
    9.40000p  525.3323u   -1.0971m 
    9.41000p  522.7396u   -1.1044m 
    9.42000p  520.1469u   -1.1118m 
    9.43000p  517.5542u   -1.1191m 
    9.44000p  514.9615u   -1.1265m 
    9.45000p  512.3688u   -1.1338m 
    9.46000p  509.7761u   -1.1412m 
    9.47000p  507.1834u   -1.1485m 
    9.48000p  504.5907u   -1.1559m 
    9.49000p  501.9980u   -1.1633m 
    9.50000p  499.4053u   -1.1706m 
    9.51000p  496.8126u   -1.1780m 
    9.52000p  494.2199u   -1.1853m 
    9.53000p  491.6272u   -1.1927m 
    9.54000p  489.0345u   -1.2000m 
    9.55000p  486.4418u   -1.2074m 
    9.56000p  483.8491u   -1.2147m 
    9.57000p  481.2564u   -1.2221m 
    9.58000p  478.6637u   -1.2294m 
    9.59000p  476.0710u   -1.2368m 
    9.60000p  473.4783u   -1.2442m 
    9.61000p  470.8856u   -1.2515m 
    9.62000p  468.2929u   -1.2589m 
    9.63000p  465.7002u   -1.2662m 
    9.64000p  463.1075u   -1.2736m 
    9.65000p  460.5148u   -1.2809m 
    9.66000p  457.9221u   -1.2883m 
    9.67000p  455.3294u   -1.2956m 
    9.68000p  452.7367u   -1.3030m 
    9.69000p  450.1440u   -1.3104m 
    9.70000p  447.5513u   -1.3177m 
    9.71000p  444.9586u   -1.3251m 
    9.72000p  442.3659u   -1.3324m 
    9.73000p  439.7732u   -1.3398m 
    9.74000p  437.1805u   -1.3471m 
    9.75000p  434.5878u   -1.3545m 
    9.76000p  431.9951u   -1.3618m 
    9.77000p  429.4024u   -1.3692m 
    9.78000p  426.8097u   -1.3765m 
    9.79000p  424.2170u   -1.3839m 
    9.80000p  421.6243u   -1.3913m 
    9.81000p  416.3709u   -1.4061m 
    9.82000p  411.0400u   -1.4212m 
    9.83000p  405.7091u   -1.4363m 
    9.84000p  400.3782u   -1.4513m 
    9.85000p  395.0473u   -1.4664m 
    9.86000p  389.7164u   -1.4815m 
    9.87000p  384.3854u   -1.4965m 
    9.88000p  379.0545u   -1.5116m 
    9.89000p  373.7236u   -1.5267m 
    9.90000p  368.3927u   -1.5418m 
    9.91000p  363.0618u   -1.5568m 
    9.92000p  357.7309u   -1.5719m 
    9.93000p  352.3999u   -1.5870m 
    9.94000p  347.0690u   -1.6021m 
    9.95000p  341.7381u   -1.6171m 
    9.96000p  336.4072u   -1.6322m 
    9.97000p  331.0763u   -1.6473m 
    9.98000p  325.7454u   -1.6623m 
    9.99000p  320.4144u   -1.6774m 
   10.00000p  315.0835u   -1.6925m 
   10.01000p  309.7526u   -1.7076m 
   10.02000p  304.4217u   -1.7226m 
   10.03000p  299.0908u   -1.7377m 
   10.04000p  293.7599u   -1.7528m 
   10.05000p  288.4290u   -1.7678m 
   10.06000p  283.0980u   -1.7829m 
   10.07000p  277.7671u   -1.7980m 
   10.08000p  272.4362u   -1.8131m 
   10.09000p  267.1053u   -1.8281m 
   10.10000p  261.7744u   -1.8432m 
   10.11000p  256.4435u   -1.8583m 
   10.12000p  251.1125u   -1.8734m 
   10.13000p  245.7816u   -1.8884m 
   10.14000p  240.4507u   -1.9035m 
   10.15000p  235.1198u   -1.9186m 
   10.16000p  229.7889u   -1.9336m 
   10.17000p  224.4580u   -1.9487m 
   10.18000p  219.1270u   -1.9638m 
   10.19000p  213.7961u   -1.9789m 
   10.20000p  208.4652u   -1.9939m 
   10.21000p  203.1343u   -2.0090m 
   10.22000p  197.8034u   -2.0241m 
   10.23000p  192.4725u   -2.0392m 
   10.24000p  187.1416u   -2.0542m 
   10.25000p  181.8106u   -2.0693m 
   10.26000p  176.4797u   -2.0844m 
   10.27000p  171.1488u   -2.0994m 
   10.28000p  165.8179u   -2.1145m 
   10.29000p  160.4870u   -2.1296m 
   10.30000p  155.1561u   -2.1447m 
   10.31000p  149.8251u   -2.1597m 
   10.32000p  144.4942u   -2.1748m 
   10.33000p  139.1633u   -2.1899m 
   10.34000p  133.8324u   -2.2050m 
   10.35000p  128.5015u   -2.2200m 
   10.36000p  123.1706u   -2.2351m 
   10.37000p  117.8396u   -2.2502m 
   10.38000p  112.5087u   -2.2652m 
   10.39000p  107.1778u   -2.2803m 
   10.40000p  101.8469u   -2.2954m 
   10.41000p   96.5160u   -2.3105m 
   10.42000p   91.1851u   -2.3255m 
   10.43000p   85.8541u   -2.3406m 
   10.44000p   80.5232u   -2.3557m 
   10.45000p   75.1923u   -2.3707m 
   10.46000p   69.8614u   -2.3858m 
   10.47000p   64.5305u   -2.4009m 
   10.48000p   59.1996u   -2.4160m 
   10.49000p   53.8687u   -2.4310m 
   10.50000p   48.5377u   -2.4461m 
   10.51000p   43.2068u   -2.4612m 
   10.52000p   37.8759u   -2.4763m 
   10.53000p   32.5450u   -2.4913m 
   10.54000p   27.2141u   -2.5064m 
   10.55000p   21.8832u   -2.5215m 
   10.56000p   16.5522u   -2.5365m 
   10.57000p   11.2213u   -2.5516m 
   10.58000p    5.8904u   -2.5667m 
   10.59000p  559.4957n   -2.5818m 
   10.60000p   -4.7714u   -2.5968m 
   10.61000p  -10.1023u   -2.6119m 
   10.62000p  -15.4333u   -2.6270m 
   10.63000p  -20.7642u   -2.6421m 
   10.64000p  -26.0951u   -2.6571m 
   10.65000p  -31.4260u   -2.6722m 
   10.66000p  -36.7569u   -2.6873m 
   10.67000p  -42.0878u   -2.7023m 
   10.68000p  -47.4187u   -2.7174m 
   10.69000p  -52.7497u   -2.7325m 
   10.70000p  -58.0806u   -2.7476m 
   10.71000p  -63.4115u   -2.7626m 
   10.72000p  -68.7424u   -2.7777m 
   10.73000p  -74.0733u   -2.7928m 
   10.74000p  -79.4042u   -2.8078m 
   10.75000p  -84.7352u   -2.8229m 
   10.76000p  -90.0661u   -2.8380m 
   10.77000p  -95.3970u   -2.8531m 
   10.78000p -100.7279u   -2.8681m 
   10.79000p -106.0588u   -2.8832m 
   10.80000p -111.3897u   -2.8983m 
   10.81000p -116.7207u   -2.9134m 
   10.82000p -122.0516u   -2.9284m 
   10.83000p -127.3825u   -2.9435m 
   10.84000p -132.7134u   -2.9586m 
   10.85000p -138.0443u   -2.9736m 
   10.86000p -143.3752u   -2.9887m 
   10.87000p -148.7061u   -3.0038m 
   10.88000p -154.0371u   -3.0189m 
   10.89000p -159.3680u   -3.0339m 
   10.90000p -164.6989u   -3.0490m 
   10.91000p -170.0298u   -3.0641m 
   10.92000p -175.3607u   -3.0792m 
   10.93000p -180.6916u   -3.0942m 
   10.94000p -186.0226u   -3.1093m 
   10.95000p -191.3535u   -3.1244m 
   10.96000p -196.6844u   -3.1394m 
   10.97000p -202.0153u   -3.1545m 
   10.98000p -207.3462u   -3.1696m 
   10.99000p -212.6771u   -3.1847m 
   11.00000p -218.0081u   -3.1997m 
   11.01000p -223.3390u   -3.2148m 
   11.02000p -228.6699u   -3.2299m 
   11.03000p -234.0008u   -3.2449m 
   11.04000p -239.3317u   -3.2600m 
   11.05000p -244.6626u   -3.2751m 
   11.06000p -249.9936u   -3.2902m 
   11.07000p -255.3245u   -3.3052m 
   11.08000p -260.6554u   -3.3203m 
   11.09000p -265.9863u   -3.3354m 
   11.10000p -271.3172u   -3.3505m 
   11.11000p -276.6481u   -3.3655m 
   11.12000p -281.9790u   -3.3806m 
   11.13000p -287.3100u   -3.3957m 
   11.14000p -292.6409u   -3.4107m 
   11.15000p -297.9718u   -3.4258m 
   11.16000p -303.3027u   -3.4409m 
   11.17000p -308.6336u   -3.4560m 
   11.18000p -313.9645u   -3.4710m 
   11.19000p -319.2955u   -3.4861m 
   11.20000p -324.6264u   -3.5012m 
   11.21000p -329.9573u   -3.5163m 
   11.22000p -335.2882u   -3.5313m 
   11.23000p -340.6191u   -3.5464m 
   11.24000p -345.9500u   -3.5615m 
   11.25000p -351.2810u   -3.5765m 
   11.26000p -356.6119u   -3.5916m 
   11.27000p -361.9428u   -3.6067m 
   11.28000p -367.2737u   -3.6218m 
   11.29000p -372.6046u   -3.6368m 
   11.30000p -377.9355u   -3.6519m 
   11.31000p -383.2664u   -3.6670m 
   11.32000p -388.5974u   -3.6820m 
   11.33000p -393.9283u   -3.6971m 
   11.34000p -399.2592u   -3.7122m 
   11.35000p -404.5901u   -3.7273m 
   11.36000p -409.9210u   -3.7423m 
   11.37000p -415.2519u   -3.7574m 
   11.38000p -420.5829u   -3.7725m 
   11.39000p -425.9138u   -3.7876m 
   11.40000p -431.2447u   -3.8026m 
   11.41000p -436.5756u   -3.8177m 
   11.42000p -441.9065u   -3.8328m 
   11.43000p -447.2374u   -3.8478m 
   11.44000p -452.5684u   -3.8629m 
   11.45000p -457.8993u   -3.8780m 
   11.46000p -463.2302u   -3.8931m 
   11.47000p -468.5611u   -3.9081m 
   11.48000p -473.8920u   -3.9232m 
   11.49000p -479.2229u   -3.9383m 
   11.50000p -484.5538u   -3.9534m 
   11.51000p -489.8848u   -3.9684m 
   11.52000p -495.2157u   -3.9835m 
   11.53000p -500.5466u   -3.9986m 
   11.54000p -505.8775u   -4.0136m 
   11.55000p -511.2084u   -4.0287m 
   11.56000p -516.5393u   -4.0438m 
   11.57000p -521.8703u   -4.0589m 
   11.58000p -527.2012u   -4.0739m 
   11.59000p -532.5321u   -4.0890m 
   11.60000p -537.8630u   -4.1041m 
   11.61000p -543.1939u   -4.1192m 
   11.62000p -548.5248u   -4.1342m 
   11.63000p -553.8558u   -4.1493m 
   11.64000p -559.1867u   -4.1644m 
   11.65000p -564.5176u   -4.1794m 
   11.66000p -569.8485u   -4.1945m 
   11.67000p -575.1794u   -4.2096m 
   11.68000p -580.5103u   -4.2247m 
   11.69000p -585.8413u   -4.2397m 
   11.70000p -591.1722u   -4.2548m 
   11.71000p -596.5031u   -4.2699m 
   11.72000p -601.8340u   -4.2849m 
   11.73000p -607.1649u   -4.3000m 
   11.74000p -612.4958u   -4.3151m 
   11.75000p -617.8267u   -4.3302m 
   11.76000p -623.1577u   -4.3452m 
   11.77000p -628.4886u   -4.3603m 
   11.78000p -633.8195u   -4.3754m 
   11.79000p -639.1504u   -4.3905m 
   11.80000p -644.4813u   -4.4055m 
   11.81000p -649.8122u   -4.4206m 
   11.82000p -655.1432u   -4.4357m 
   11.83000p -660.4741u   -4.4507m 
   11.84000p -665.8050u   -4.4658m 
   11.85000p -671.1359u   -4.4809m 
   11.86000p -676.4668u   -4.4960m 
   11.87000p -681.7977u   -4.5110m 
   11.88000p -687.1287u   -4.5261m 
   11.89000p -692.4596u   -4.5412m 
   11.90000p -697.7905u   -4.5563m 
   11.91000p -703.1214u   -4.5713m 
   11.92000p -708.4523u   -4.5864m 
   11.93000p -713.7832u   -4.6015m 
   11.94000p -719.1141u   -4.6165m 
   11.95000p -724.4451u   -4.6316m 
   11.96000p -729.7760u   -4.6467m 
   11.97000p -735.1069u   -4.6618m 
   11.98000p -740.4378u   -4.6768m 
   11.99000p -745.7687u   -4.6919m 
   12.00000p -751.0996u   -4.7070m 
   12.01000p -756.4306u   -4.7220m 
   12.02000p -761.7615u   -4.7371m 
   12.03000p -767.0924u   -4.7522m 
   12.04000p -772.4233u   -4.7673m 
   12.05000p -777.7542u   -4.7823m 
   12.06000p -783.0851u   -4.7974m 
   12.07000p -788.4161u   -4.8125m 
   12.08000p -793.7470u   -4.8276m 
   12.09000p -799.0779u   -4.8426m 
   12.10000p -804.4088u   -4.8577m 
   12.11000p -809.7397u   -4.8728m 
   12.12000p -815.0706u   -4.8878m 
   12.13000p -820.4015u   -4.9029m 
   12.14000p -825.7325u   -4.9180m 
   12.15000p -831.0634u   -4.9331m 
   12.16000p -836.3943u   -4.9481m 
   12.17000p -841.7252u   -4.9632m 
   12.18000p -847.0561u   -4.9783m 
   12.19000p -852.3870u   -4.9934m 
   12.20000p -857.7180u   -5.0084m 
   12.21000p -863.0489u   -5.0235m 
   12.22000p -868.3798u   -5.0386m 
   12.23000p -873.7107u   -5.0536m 
   12.24000p -879.0416u   -5.0687m 
   12.25000p -884.3725u   -5.0838m 
   12.26000p -889.7035u   -5.0989m 
   12.27000p -895.0344u   -5.1139m 
   12.28000p -900.3653u   -5.1290m 
   12.29000p -905.6962u   -5.1441m 
   12.30000p -911.0271u   -5.1591m 
   12.31000p -916.3580u   -5.1742m 
   12.32000p -921.6890u   -5.1893m 
   12.33000p -927.0199u   -5.2044m 
   12.34000p -932.3508u   -5.2194m 
   12.35000p -937.6817u   -5.2345m 
   12.36000p -943.0126u   -5.2496m 
   12.37000p -948.3435u   -5.2647m 
   12.38000p -953.6744u   -5.2797m 
   12.39000p -959.0054u   -5.2948m 
   12.40000p -964.3363u   -5.3099m 
   12.41000p -969.6672u   -5.3249m 
   12.42000p -974.9981u   -5.3400m 
   12.43000p -980.3290u   -5.3551m 
   12.44000p -985.6599u   -5.3702m 
   12.45000p -990.9909u   -5.3852m 
   12.46000p -996.3218u   -5.4003m 
   12.47000p   -1.0017m   -5.4154m 
   12.48000p   -1.0070m   -5.4305m 
   12.49000p   -1.0123m   -5.4455m 
   12.50000p   -1.0176m   -5.4606m 
   12.51000p   -1.0230m   -5.4757m 
   12.52000p   -1.0283m   -5.4907m 
   12.53000p   -1.0336m   -5.5058m 
   12.54000p   -1.0390m   -5.5209m 
   12.55000p   -1.0443m   -5.5360m 
   12.56000p   -1.0496m   -5.5510m 
   12.57000p   -1.0550m   -5.5661m 
   12.58000p   -1.0603m   -5.5812m 
   12.59000p   -1.0656m   -5.5962m 
   12.60000p   -1.0710m   -5.6113m 
   12.61000p   -1.0763m   -5.6264m 
   12.62000p   -1.0816m   -5.6415m 
   12.63000p   -1.0869m   -5.6565m 
   12.64000p   -1.0923m   -5.6716m 
   12.65000p   -1.0976m   -5.6867m 
   12.66000p   -1.1029m   -5.7018m 
   12.67000p   -1.1083m   -5.7168m 
   12.68000p   -1.1136m   -5.7319m 
   12.69000p   -1.1189m   -5.7470m 
   12.70000p   -1.1243m   -5.7620m 
   12.71000p   -1.1296m   -5.7771m 
   12.72000p   -1.1349m   -5.7922m 
   12.73000p   -1.1403m   -5.8073m 
   12.74000p   -1.1456m   -5.8223m 
   12.75000p   -1.1509m   -5.8374m 
   12.76000p   -1.1562m   -5.8525m 
   12.77000p   -1.1616m   -5.8676m 
   12.78000p   -1.1669m   -5.8826m 
   12.79000p   -1.1722m   -5.8977m 
   12.80000p   -1.1776m   -5.9128m 
   12.81000p   -1.1829m   -5.9278m 
   12.82000p   -1.1882m   -5.9429m 
   12.83000p   -1.1936m   -5.9580m 
   12.84000p   -1.1989m   -5.9731m 
   12.85000p   -1.2042m   -5.9881m 
   12.86000p   -1.2096m   -6.0032m 
   12.87000p   -1.2149m   -6.0183m 
   12.88000p   -1.2202m   -6.0334m 
   12.89000p   -1.2256m   -6.0484m 
   12.90000p   -1.2309m   -6.0635m 
   12.91000p   -1.2362m   -6.0786m 
   12.92000p   -1.2415m   -6.0936m 
   12.93000p   -1.2469m   -6.1087m 
   12.94000p   -1.2522m   -6.1238m 
   12.95000p   -1.2575m   -6.1389m 
   12.96000p   -1.2629m   -6.1539m 
   12.97000p   -1.2682m   -6.1690m 
   12.98000p   -1.2735m   -6.1841m 
   12.99000p   -1.2789m   -6.1991m 
   13.00000p   -1.2842m   -6.2142m 
   13.01000p   -1.2886m   -6.2219m 
   13.02000p   -1.2916m   -6.2185m 
   13.03000p   -1.2946m   -6.2150m 
   13.04000p   -1.2975m   -6.2116m 
   13.05000p   -1.3005m   -6.2081m 
   13.06000p   -1.3035m   -6.2047m 
   13.07000p   -1.3065m   -6.2012m 
   13.08000p   -1.3095m   -6.1978m 
   13.09000p   -1.3125m   -6.1943m 
   13.10000p   -1.3155m   -6.1909m 
   13.11000p   -1.3184m   -6.1874m 
   13.12000p   -1.3214m   -6.1840m 
   13.13000p   -1.3244m   -6.1805m 
   13.14000p   -1.3274m   -6.1771m 
   13.15000p   -1.3304m   -6.1736m 
   13.16000p   -1.3334m   -6.1702m 
   13.17000p   -1.3364m   -6.1667m 
   13.18000p   -1.3393m   -6.1633m 
   13.19000p   -1.3423m   -6.1598m 
   13.20000p   -1.3453m   -6.1564m 
   13.21000p   -1.3483m   -6.1529m 
   13.22000p   -1.3513m   -6.1495m 
   13.23000p   -1.3543m   -6.1460m 
   13.24000p   -1.3573m   -6.1426m 
   13.25000p   -1.3602m   -6.1391m 
   13.26000p   -1.3632m   -6.1357m 
   13.27000p   -1.3662m   -6.1322m 
   13.28000p   -1.3692m   -6.1288m 
   13.29000p   -1.3722m   -6.1253m 
   13.30000p   -1.3752m   -6.1219m 
   13.31000p   -1.3782m   -6.1184m 
   13.32000p   -1.3811m   -6.1150m 
   13.33000p   -1.3841m   -6.1115m 
   13.34000p   -1.3871m   -6.1081m 
   13.35000p   -1.3901m   -6.1046m 
   13.36000p   -1.3931m   -6.1012m 
   13.37000p   -1.3961m   -6.0977m 
   13.38000p   -1.3991m   -6.0943m 
   13.39000p   -1.4020m   -6.0908m 
   13.40000p   -1.4050m   -6.0874m 
   13.41000p   -1.4080m   -6.0839m 
   13.42000p   -1.4110m   -6.0804m 
   13.43000p   -1.4140m   -6.0770m 
   13.44000p   -1.4170m   -6.0735m 
   13.45000p   -1.4200m   -6.0701m 
   13.46000p   -1.4229m   -6.0666m 
   13.47000p   -1.4259m   -6.0632m 
   13.48000p   -1.4289m   -6.0597m 
   13.49000p   -1.4319m   -6.0563m 
   13.50000p   -1.4349m   -6.0528m 
   13.51000p   -1.4379m   -6.0494m 
   13.52000p   -1.4409m   -6.0459m 
   13.53000p   -1.4438m   -6.0425m 
   13.54000p   -1.4468m   -6.0390m 
   13.55000p   -1.4498m   -6.0356m 
   13.56000p   -1.4528m   -6.0321m 
   13.57000p   -1.4558m   -6.0287m 
   13.58000p   -1.4588m   -6.0252m 
   13.59000p   -1.4618m   -6.0218m 
   13.60000p   -1.4647m   -6.0183m 
   13.61000p   -1.4677m   -6.0149m 
   13.62000p   -1.4707m   -6.0114m 
   13.63000p   -1.4737m   -6.0080m 
   13.64000p   -1.4767m   -6.0045m 
   13.65000p   -1.4797m   -6.0011m 
   13.66000p   -1.4827m   -5.9976m 
   13.67000p   -1.4856m   -5.9942m 
   13.68000p   -1.4886m   -5.9907m 
   13.69000p   -1.4916m   -5.9873m 
   13.70000p   -1.4946m   -5.9838m 
   13.71000p   -1.4976m   -5.9804m 
   13.72000p   -1.5006m   -5.9769m 
   13.73000p   -1.5036m   -5.9735m 
   13.74000p   -1.5065m   -5.9700m 
   13.75000p   -1.5095m   -5.9666m 
   13.76000p   -1.5125m   -5.9631m 
   13.77000p   -1.5155m   -5.9597m 
   13.78000p   -1.5185m   -5.9562m 
   13.79000p   -1.5215m   -5.9528m 
   13.80000p   -1.5244m   -5.9493m 
   13.81000p   -1.5274m   -5.9459m 
   13.82000p   -1.5304m   -5.9424m 
   13.83000p   -1.5334m   -5.9390m 
   13.84000p   -1.5364m   -5.9355m 
   13.85000p   -1.5394m   -5.9321m 
   13.86000p   -1.5424m   -5.9286m 
   13.87000p   -1.5453m   -5.9252m 
   13.88000p   -1.5483m   -5.9217m 
   13.89000p   -1.5513m   -5.9183m 
   13.90000p   -1.5543m   -5.9148m 
   13.91000p   -1.5573m   -5.9114m 
   13.92000p   -1.5603m   -5.9079m 
   13.93000p   -1.5633m   -5.9045m 
   13.94000p   -1.5662m   -5.9010m 
   13.95000p   -1.5692m   -5.8976m 
   13.96000p   -1.5722m   -5.8941m 
   13.97000p   -1.5752m   -5.8907m 
   13.98000p   -1.5782m   -5.8872m 
   13.99000p   -1.5812m   -5.8838m 
   14.00000p   -1.5842m   -5.8803m 
   14.01000p   -1.5871m   -5.8769m 
   14.02000p   -1.5901m   -5.8734m 
   14.03000p   -1.5931m   -5.8700m 
   14.04000p   -1.5961m   -5.8665m 
   14.05000p   -1.5991m   -5.8631m 
   14.06000p   -1.6021m   -5.8596m 
   14.07000p   -1.6051m   -5.8562m 
   14.08000p   -1.6080m   -5.8527m 
   14.09000p   -1.6110m   -5.8493m 
   14.10000p   -1.6140m   -5.8458m 
   14.11000p   -1.6170m   -5.8424m 
   14.12000p   -1.6200m   -5.8389m 
   14.13000p   -1.6230m   -5.8355m 
   14.14000p   -1.6260m   -5.8320m 
   14.15000p   -1.6289m   -5.8286m 
   14.16000p   -1.6319m   -5.8251m 
   14.17000p   -1.6349m   -5.8217m 
   14.18000p   -1.6379m   -5.8182m 
   14.19000p   -1.6409m   -5.8148m 
   14.20000p   -1.6439m   -5.8113m 
   14.21000p   -1.6469m   -5.8079m 
   14.22000p   -1.6498m   -5.8044m 
   14.23000p   -1.6528m   -5.8010m 
   14.24000p   -1.6558m   -5.7975m 
   14.25000p   -1.6588m   -5.7941m 
   14.26000p   -1.6618m   -5.7906m 
   14.27000p   -1.6648m   -5.7872m 
   14.28000p   -1.6678m   -5.7837m 
   14.29000p   -1.6707m   -5.7803m 
   14.30000p   -1.6737m   -5.7768m 
   14.31000p   -1.6767m   -5.7734m 
   14.32000p   -1.6797m   -5.7699m 
   14.33000p   -1.6827m   -5.7665m 
   14.34000p   -1.6857m   -5.7630m 
   14.35000p   -1.6887m   -5.7596m 
   14.36000p   -1.6916m   -5.7561m 
   14.37000p   -1.6946m   -5.7527m 
   14.38000p   -1.6976m   -5.7492m 
   14.39000p   -1.7006m   -5.7458m 
   14.40000p   -1.7036m   -5.7423m 
   14.41000p   -1.7066m   -5.7389m 
   14.42000p   -1.7096m   -5.7354m 
   14.43000p   -1.7125m   -5.7320m 
   14.44000p   -1.7155m   -5.7285m 
   14.45000p   -1.7185m   -5.7251m 
   14.46000p   -1.7215m   -5.7216m 
   14.47000p   -1.7245m   -5.7182m 
   14.48000p   -1.7275m   -5.7147m 
   14.49000p   -1.7305m   -5.7113m 
   14.50000p   -1.7334m   -5.7078m 
   14.51000p   -1.7364m   -5.7044m 
   14.52000p   -1.7394m   -5.7009m 
   14.53000p   -1.7424m   -5.6975m 
   14.54000p   -1.7454m   -5.6940m 
   14.55000p   -1.7484m   -5.6906m 
   14.56000p   -1.7514m   -5.6871m 
   14.57000p   -1.7543m   -5.6837m 
   14.58000p   -1.7573m   -5.6802m 
   14.59000p   -1.7603m   -5.6768m 
   14.60000p   -1.7633m   -5.6733m 
   14.61000p   -1.7663m   -5.6699m 
   14.62000p   -1.7693m   -5.6664m 
   14.63000p   -1.7723m   -5.6630m 
   14.64000p   -1.7752m   -5.6595m 
   14.65000p   -1.7782m   -5.6561m 
   14.66000p   -1.7812m   -5.6526m 
   14.67000p   -1.7842m   -5.6492m 
   14.68000p   -1.7872m   -5.6457m 
   14.69000p   -1.7902m   -5.6423m 
   14.70000p   -1.7932m   -5.6388m 
   14.71000p   -1.7961m   -5.6354m 
   14.72000p   -1.7991m   -5.6319m 
   14.73000p   -1.8021m   -5.6285m 
   14.74000p   -1.8051m   -5.6250m 
   14.75000p   -1.8081m   -5.6216m 
   14.76000p   -1.8111m   -5.6181m 
   14.77000p   -1.8141m   -5.6147m 
   14.78000p   -1.8170m   -5.6112m 
   14.79000p   -1.8200m   -5.6078m 
   14.80000p   -1.8230m   -5.6043m 
   14.81000p   -1.8260m   -5.6009m 
   14.82000p   -1.8290m   -5.5974m 
   14.83000p   -1.8320m   -5.5940m 
   14.84000p   -1.8350m   -5.5905m 
   14.85000p   -1.8379m   -5.5871m 
   14.86000p   -1.8409m   -5.5836m 
   14.87000p   -1.8439m   -5.5801m 
   14.88000p   -1.8469m   -5.5767m 
   14.89000p   -1.8499m   -5.5732m 
   14.90000p   -1.8529m   -5.5698m 
   14.91000p   -1.8558m   -5.5663m 
   14.92000p   -1.8588m   -5.5629m 
   14.93000p   -1.8618m   -5.5594m 
   14.94000p   -1.8648m   -5.5560m 
   14.95000p   -1.8678m   -5.5525m 
   14.96000p   -1.8708m   -5.5491m 
   14.97000p   -1.8738m   -5.5456m 
   14.98000p   -1.8767m   -5.5422m 
   14.99000p   -1.8797m   -5.5387m 
   15.00000p   -1.8827m   -5.5353m 
   15.01000p   -1.8857m   -5.5318m 
   15.02000p   -1.8887m   -5.5284m 
   15.03000p   -1.8917m   -5.5249m 
   15.04000p   -1.8947m   -5.5215m 
   15.05000p   -1.8976m   -5.5180m 
   15.06000p   -1.9006m   -5.5146m 
   15.07000p   -1.9036m   -5.5111m 
   15.08000p   -1.9066m   -5.5077m 
   15.09000p   -1.9096m   -5.5042m 
   15.10000p   -1.9126m   -5.5008m 
   15.11000p   -1.9156m   -5.4973m 
   15.12000p   -1.9185m   -5.4939m 
   15.13000p   -1.9215m   -5.4904m 
   15.14000p   -1.9245m   -5.4870m 
   15.15000p   -1.9275m   -5.4835m 
   15.16000p   -1.9305m   -5.4801m 
   15.17000p   -1.9335m   -5.4766m 
   15.18000p   -1.9365m   -5.4732m 
   15.19000p   -1.9394m   -5.4697m 
   15.20000p   -1.9424m   -5.4663m 
   15.21000p   -1.9454m   -5.4628m 
   15.22000p   -1.9484m   -5.4594m 
   15.23000p   -1.9514m   -5.4559m 
   15.24000p   -1.9544m   -5.4525m 
   15.25000p   -1.9574m   -5.4490m 
   15.26000p   -1.9603m   -5.4456m 
   15.27000p   -1.9633m   -5.4421m 
   15.28000p   -1.9663m   -5.4387m 
   15.29000p   -1.9693m   -5.4352m 
   15.30000p   -1.9723m   -5.4318m 
   15.31000p   -1.9753m   -5.4283m 
   15.32000p   -1.9783m   -5.4249m 
   15.33000p   -1.9812m   -5.4214m 
   15.34000p   -1.9842m   -5.4180m 
   15.35000p   -1.9872m   -5.4145m 
   15.36000p   -1.9902m   -5.4111m 
   15.37000p   -1.9932m   -5.4076m 
   15.38000p   -1.9962m   -5.4042m 
   15.39000p   -1.9992m   -5.4007m 
   15.40000p   -2.0021m   -5.3973m 
   15.41000p   -2.0051m   -5.3938m 
   15.42000p   -2.0081m   -5.3904m 
   15.43000p   -2.0111m   -5.3869m 
   15.44000p   -2.0141m   -5.3835m 
   15.45000p   -2.0171m   -5.3800m 
   15.46000p   -2.0201m   -5.3766m 
   15.47000p   -2.0230m   -5.3731m 
   15.48000p   -2.0260m   -5.3697m 
   15.49000p   -2.0290m   -5.3662m 
   15.50000p   -2.0320m   -5.3628m 
   15.51000p   -2.0350m   -5.3593m 
   15.52000p   -2.0380m   -5.3559m 
   15.53000p   -2.0410m   -5.3524m 
   15.54000p   -2.0439m   -5.3490m 
   15.55000p   -2.0469m   -5.3455m 
   15.56000p   -2.0499m   -5.3421m 
   15.57000p   -2.0529m   -5.3386m 
   15.58000p   -2.0559m   -5.3352m 
   15.59000p   -2.0589m   -5.3317m 
   15.60000p   -2.0619m   -5.3283m 
   15.61000p   -2.0648m   -5.3248m 
   15.62000p   -2.0678m   -5.3214m 
   15.63000p   -2.0708m   -5.3179m 
   15.64000p   -2.0738m   -5.3145m 
   15.65000p   -2.0768m   -5.3110m 
   15.66000p   -2.0798m   -5.3076m 
   15.67000p   -2.0828m   -5.3041m 
   15.68000p   -2.0857m   -5.3007m 
   15.69000p   -2.0887m   -5.2972m 
   15.70000p   -2.0917m   -5.2938m 
   15.71000p   -2.0947m   -5.2903m 
   15.72000p   -2.0977m   -5.2869m 
   15.73000p   -2.1007m   -5.2834m 
   15.74000p   -2.1037m   -5.2800m 
   15.75000p   -2.1066m   -5.2765m 
   15.76000p   -2.1096m   -5.2731m 
   15.77000p   -2.1126m   -5.2696m 
   15.78000p   -2.1156m   -5.2662m 
   15.79000p   -2.1186m   -5.2627m 
   15.80000p   -2.1216m   -5.2593m 
   15.81000p   -2.1246m   -5.2558m 
   15.82000p   -2.1275m   -5.2524m 
   15.83000p   -2.1305m   -5.2489m 
   15.84000p   -2.1335m   -5.2455m 
   15.85000p   -2.1365m   -5.2420m 
   15.86000p   -2.1395m   -5.2386m 
   15.87000p   -2.1425m   -5.2351m 
   15.88000p   -2.1455m   -5.2317m 
   15.89000p   -2.1484m   -5.2282m 
   15.90000p   -2.1514m   -5.2248m 
   15.91000p   -2.1544m   -5.2213m 
   15.92000p   -2.1574m   -5.2179m 
   15.93000p   -2.1604m   -5.2144m 
   15.94000p   -2.1634m   -5.2110m 
   15.95000p   -2.1664m   -5.2075m 
   15.96000p   -2.1693m   -5.2041m 
   15.97000p   -2.1723m   -5.2006m 
   15.98000p   -2.1753m   -5.1972m 
   15.99000p   -2.1783m   -5.1937m 
   16.00000p   -2.1813m   -5.1903m 
   16.01000p   -2.1843m   -5.1868m 
   16.02000p   -2.1872m   -5.1834m 
   16.03000p   -2.1902m   -5.1799m 
   16.04000p   -2.1932m   -5.1765m 
   16.05000p   -2.1962m   -5.1730m 
   16.06000p   -2.1992m   -5.1696m 
   16.07000p   -2.2022m   -5.1661m 
   16.08000p   -2.2052m   -5.1627m 
   16.09000p   -2.2081m   -5.1592m 
   16.10000p   -2.2111m   -5.1558m 
   16.11000p   -2.2141m   -5.1523m 
   16.12000p   -2.2171m   -5.1489m 
   16.13000p   -2.2201m   -5.1454m 
   16.14000p   -2.2231m   -5.1420m 
   16.15000p   -2.2261m   -5.1385m 
   16.16000p   -2.2290m   -5.1351m 
   16.17000p   -2.2320m   -5.1316m 
   16.18000p   -2.2350m   -5.1282m 
   16.19000p   -2.2380m   -5.1247m 
   16.20000p   -2.2337m   -5.1065m 
   16.21000p   -2.1657m   -4.9608m 
   16.22000p   -2.0978m   -4.8152m 
   16.23000p   -2.0299m   -4.6695m 
   16.24000p   -1.9620m   -4.5238m 
   16.25000p   -1.8941m   -4.3781m 
   16.26000p   -1.8261m   -4.2324m 
   16.27000p   -1.7582m   -4.0867m 
   16.28000p   -1.6903m   -3.9411m 
   16.29000p   -1.6224m   -3.7954m 
   16.30000p   -1.5545m   -3.6497m 
   16.31000p   -1.4866m   -3.5040m 
   16.32000p   -1.4186m   -3.3583m 
   16.33000p   -1.3507m   -3.2126m 
   16.34000p   -1.2828m   -3.0670m 
   16.35000p   -1.2149m   -2.9213m 
   16.36000p   -1.1470m   -2.7756m 
   16.37000p   -1.0790m   -2.6299m 
   16.38000p   -1.0111m   -2.4842m 
   16.39000p -943.2078u   -2.3385m 
   16.40000p -875.2897u   -2.1929m 
   16.41000p -807.3716u   -2.0472m 
   16.42000p -739.4536u   -1.9015m 
   16.43000p -671.5355u   -1.7558m 
   16.44000p -603.6174u   -1.6101m 
   16.45000p -535.6993u   -1.4644m 
   16.46000p -467.7812u   -1.3187m 
   16.47000p -399.8631u   -1.1731m 
   16.48000p -331.9451u   -1.0274m 
   16.49000p -264.0270u -881.6967u 
   16.50000p -196.1089u -736.0128u 
   16.51000p -128.1908u -590.3288u 
   16.52000p  -60.2727u -444.6448u 
   16.53000p    7.6454u -298.9608u 
   16.54000p   75.5635u -153.2768u 
   16.55000p  143.4815u   -7.5929u 
   16.56000p  211.3996u  138.0911u 
   16.57000p  279.3177u  283.7751u 
   16.58000p  347.2358u  429.4591u 
   16.59000p  415.1539u  575.1431u 
   16.60000p  483.0720u  720.8270u 
   16.61000p  550.9901u  866.5110u 
   16.62000p  618.9081u    1.0122m 
   16.63000p  686.8262u    1.1579m 
   16.64000p  754.7443u    1.3036m 
   16.65000p  822.6624u    1.4492m 
   16.66000p  890.5805u    1.5949m 
   16.67000p  958.4986u    1.7406m 
   16.68000p    1.0264m    1.8863m 
   16.69000p    1.0943m    2.0320m 
   16.70000p    1.1623m    2.1777m 
   16.71000p    1.2302m    2.3234m 
   16.72000p    1.2981m    2.4690m 
   16.73000p    1.3660m    2.6147m 
   16.74000p    1.4339m    2.7604m 
   16.75000p    1.5018m    2.9061m 
   16.76000p    1.5698m    3.0518m 
   16.77000p    1.6377m    3.1975m 
   16.78000p    1.7056m    3.3431m 
   16.79000p    1.7735m    3.4888m 
   16.80000p    1.8414m    3.6345m 
   16.81000p    1.9094m    3.7802m 
   16.82000p    1.9773m    3.9259m 
   16.83000p    2.0452m    4.0716m 
   16.84000p    2.1131m    4.2172m 
   16.85000p    2.1810m    4.3629m 
   16.86000p    2.2489m    4.5086m 
   16.87000p    2.3169m    4.6543m 
   16.88000p    2.3848m    4.8000m 
   16.89000p    2.4527m    4.9457m 
   16.90000p    2.5206m    5.0913m 
   16.91000p    2.5885m    5.2370m 
   16.92000p    2.6565m    5.3827m 
   16.93000p    2.7244m    5.5284m 
   16.94000p    2.7923m    5.6741m 
   16.95000p    2.8602m    5.8198m 
   16.96000p    2.9281m    5.9655m 
   16.97000p    2.9960m    6.1111m 
   16.98000p    3.0640m    6.2568m 
   16.99000p    3.1319m    6.4025m 
   17.00000p    3.1998m    6.5482m 
   17.01000p    3.2677m    6.6939m 
   17.02000p    3.3356m    6.8396m 
   17.03000p    3.4035m    6.9852m 
   17.04000p    3.4715m    7.1309m 
   17.05000p    3.5394m    7.2766m 
   17.06000p    3.6073m    7.4223m 
   17.07000p    3.6752m    7.5680m 
   17.08000p    3.7431m    7.7137m 
   17.09000p    3.8111m    7.8593m 
   17.10000p    3.8790m    8.0050m 
   17.11000p    3.9469m    8.1507m 
   17.12000p    4.0148m    8.2964m 
   17.13000p    4.0827m    8.4421m 
   17.14000p    4.1506m    8.5878m 
   17.15000p    4.2186m    8.7334m 
   17.16000p    4.2865m    8.8791m 
   17.17000p    4.3544m    9.0248m 
   17.18000p    4.4223m    9.1705m 
   17.19000p    4.4902m    9.3162m 
   17.20000p    4.5582m    9.4619m 
   17.21000p    4.6261m    9.6075m 
   17.22000p    4.6940m    9.7532m 
   17.23000p    4.7619m    9.8989m 
   17.24000p    4.8298m   10.0446m 
   17.25000p    4.8977m   10.1903m 
   17.26000p    4.9657m   10.3360m 
   17.27000p    5.0336m   10.4817m 
   17.28000p    5.1015m   10.6273m 
   17.29000p    5.1694m   10.7730m 
   17.30000p    5.2373m   10.9187m 
   17.31000p    5.3053m   11.0644m 
   17.32000p    5.3732m   11.2101m 
   17.33000p    5.4411m   11.3558m 
   17.34000p    5.5090m   11.5014m 
   17.35000p    5.5769m   11.6471m 
   17.36000p    5.6448m   11.7928m 
   17.37000p    5.7128m   11.9385m 
   17.38000p    5.7807m   12.0842m 
   17.39000p    5.8486m   12.2299m 
   17.40000p    5.9165m   12.3755m 
   17.41000p    5.9844m   12.5212m 
   17.42000p    6.0524m   12.6669m 
   17.43000p    6.1203m   12.8126m 
   17.44000p    6.1882m   12.9583m 
   17.45000p    6.2561m   13.1040m 
   17.46000p    6.3240m   13.2496m 
   17.47000p    6.3919m   13.3953m 
   17.48000p    6.4599m   13.5410m 
   17.49000p    6.5278m   13.6867m 
   17.50000p    6.5957m   13.8324m 
   17.51000p    6.6636m   13.9781m 
   17.52000p    6.7315m   14.1238m 
   17.53000p    6.7995m   14.2694m 
   17.54000p    6.8674m   14.4151m 
   17.55000p    6.9353m   14.5608m 
   17.56000p    7.0032m   14.7065m 
   17.57000p    7.0711m   14.8522m 
   17.58000p    7.1390m   14.9979m 
   17.59000p    7.2070m   15.1435m 
   17.60000p    7.2749m   15.2892m 
   17.61000p    7.3428m   15.4349m 
   17.62000p    7.4107m   15.5806m 
   17.63000p    7.4786m   15.7263m 
   17.64000p    7.5466m   15.8720m 
   17.65000p    7.6145m   16.0176m 
   17.66000p    7.6824m   16.1633m 
   17.67000p    7.7503m   16.3090m 
   17.68000p    7.8182m   16.4547m 
   17.69000p    7.8861m   16.6004m 
   17.70000p    7.9541m   16.7461m 
   17.71000p    8.0220m   16.8917m 
   17.72000p    8.0899m   17.0374m 
   17.73000p    8.1578m   17.1831m 
   17.74000p    8.2257m   17.3288m 
   17.75000p    8.2937m   17.4745m 
   17.76000p    8.3616m   17.6202m 
   17.77000p    8.4295m   17.7659m 
   17.78000p    8.4974m   17.9115m 
   17.79000p    8.5653m   18.0572m 
   17.80000p    8.6332m   18.2029m 
   17.81000p    8.7012m   18.3486m 
   17.82000p    8.7691m   18.4943m 
   17.83000p    8.8370m   18.6400m 
   17.84000p    8.9049m   18.7856m 
   17.85000p    8.9728m   18.9313m 
   17.86000p    9.0408m   19.0770m 
   17.87000p    9.1087m   19.2227m 
   17.88000p    9.1766m   19.3684m 
   17.89000p    9.2445m   19.5141m 
   17.90000p    9.3124m   19.6597m 
   17.91000p    9.3803m   19.8054m 
   17.92000p    9.4483m   19.9511m 
   17.93000p    9.5162m   20.0968m 
   17.94000p    9.5841m   20.2425m 
   17.95000p    9.6520m   20.3882m 
   17.96000p    9.7199m   20.5338m 
   17.97000p    9.7878m   20.6795m 
   17.98000p    9.8558m   20.8252m 
   17.99000p    9.9237m   20.9709m 
   18.00000p    9.9916m   21.1166m 
   18.01000p   10.0595m   21.2623m 
   18.02000p   10.1274m   21.4080m 
   18.03000p   10.1954m   21.5536m 
   18.04000p   10.2633m   21.6993m 
   18.05000p   10.3312m   21.8450m 
   18.06000p   10.3991m   21.9907m 
   18.07000p   10.4670m   22.1364m 
   18.08000p   10.5349m   22.2821m 
   18.09000p   10.6029m   22.4277m 
   18.10000p   10.6708m   22.5734m 
   18.11000p   10.7387m   22.7191m 
   18.12000p   10.8066m   22.8648m 
   18.13000p   10.8745m   23.0105m 
   18.14000p   10.9425m   23.1562m 
   18.15000p   11.0104m   23.3018m 
   18.16000p   11.0783m   23.4475m 
   18.17000p   11.1462m   23.5932m 
   18.18000p   11.2141m   23.7389m 
   18.19000p   11.2820m   23.8846m 
   18.20000p   11.3500m   24.0303m 
   18.21000p   11.4179m   24.1759m 
   18.22000p   11.4858m   24.3216m 
   18.23000p   11.5537m   24.4673m 
   18.24000p   11.6216m   24.6130m 
   18.25000p   11.6896m   24.7587m 
   18.26000p   11.7575m   24.9044m 
   18.27000p   11.8254m   25.0501m 
   18.28000p   11.8933m   25.1957m 
   18.29000p   11.9612m   25.3414m 
   18.30000p   12.0291m   25.4871m 
   18.31000p   12.0971m   25.6328m 
   18.32000p   12.1650m   25.7785m 
   18.33000p   12.2329m   25.9242m 
   18.34000p   12.3008m   26.0698m 
   18.35000p   12.3687m   26.2155m 
   18.36000p   12.4367m   26.3612m 
   18.37000p   12.5046m   26.5069m 
   18.38000p   12.5725m   26.6526m 
   18.39000p   12.9125m   27.0158m 
   18.40000p   13.2602m   27.3853m 
   18.41000p   13.6079m   27.7547m 
   18.42000p   13.9556m   28.1241m 
   18.43000p   14.3033m   28.4935m 
   18.44000p   14.6510m   28.8629m 
   18.45000p   14.9987m   29.2323m 
   18.46000p   15.3463m   29.6017m 
   18.47000p   15.6940m   29.9712m 
   18.48000p   16.0417m   30.3406m 
   18.49000p   16.3894m   30.7100m 
   18.50000p   16.7371m   31.0794m 
   18.51000p   17.0848m   31.4488m 
   18.52000p   17.4325m   31.8182m 
   18.53000p   17.7802m   32.1876m 
   18.54000p   18.1279m   32.5570m 
   18.55000p   18.4756m   32.9265m 
   18.56000p   18.8233m   33.2959m 
   18.57000p   19.1710m   33.6653m 
   18.58000p   19.5187m   34.0347m 
   18.59000p   19.8664m   34.4041m 
   18.60000p   20.2141m   34.7735m 
   18.61000p   20.5617m   35.1429m 
   18.62000p   20.9094m   35.5124m 
   18.63000p   21.2571m   35.8818m 
   18.64000p   21.6048m   36.2512m 
   18.65000p   21.9525m   36.6206m 
   18.66000p   22.3002m   36.9900m 
   18.67000p   22.6479m   37.3594m 
   18.68000p   22.9956m   37.7288m 
   18.69000p   23.3433m   38.0983m 
   18.70000p   23.6910m   38.4677m 
   18.71000p   24.0387m   38.8371m 
   18.72000p   24.3864m   39.2065m 
   18.73000p   24.7341m   39.5759m 
   18.74000p   25.0818m   39.9453m 
   18.75000p   25.4294m   40.3147m 
   18.76000p   25.7771m   40.6841m 
   18.77000p   26.1248m   41.0536m 
   18.78000p   26.4725m   41.4230m 
   18.79000p   26.8202m   41.7924m 
   18.80000p   27.1679m   42.1618m 
   18.81000p   27.5156m   42.5312m 
   18.82000p   27.8633m   42.9006m 
   18.83000p   28.2110m   43.2700m 
   18.84000p   28.5587m   43.6395m 
   18.85000p   28.9064m   44.0089m 
   18.86000p   29.2541m   44.3783m 
   18.87000p   29.6018m   44.7477m 
   18.88000p   29.9495m   45.1171m 
   18.89000p   30.2971m   45.4865m 
   18.90000p   30.6448m   45.8559m 
   18.91000p   30.9925m   46.2254m 
   18.92000p   31.3402m   46.5948m 
   18.93000p   31.6879m   46.9642m 
   18.94000p   32.0356m   47.3336m 
   18.95000p   32.3833m   47.7030m 
   18.96000p   32.7310m   48.0724m 
   18.97000p   33.0787m   48.4418m 
   18.98000p   33.4264m   48.8112m 
   18.99000p   33.7741m   49.1807m 
   19.00000p   34.1218m   49.5501m 
   19.01000p   34.4695m   49.9195m 
   19.02000p   34.8172m   50.2889m 
   19.03000p   35.1648m   50.6583m 
   19.04000p   35.5125m   51.0277m 
[...]
  495.00000p  699.0988m  699.7672m 
  495.01000p  699.0991m  699.7672m 
  495.02000p  699.0994m  699.7672m 
  495.03000p  699.0996m  699.7673m 
  495.04000p  699.0999m  699.7673m 
  495.05000p  699.1002m  699.7674m 
  495.06000p  699.1005m  699.7674m 
  495.07000p  699.1007m  699.7674m 
  495.08000p  699.1010m  699.7675m 
  495.09000p  699.1013m  699.7675m 
  495.10000p  699.1015m  699.7676m 
  495.11000p  699.1018m  699.7676m 
  495.12000p  699.1021m  699.7676m 
  495.13000p  699.1024m  699.7677m 
  495.14000p  699.1026m  699.7677m 
  495.15000p  699.1029m  699.7678m 
  495.16000p  699.1032m  699.7678m 
  495.17000p  699.1034m  699.7678m 
  495.18000p  699.1037m  699.7679m 
  495.19000p  699.1040m  699.7679m 
  495.20000p  699.1042m  699.7679m 
  495.21000p  699.1045m  699.7680m 
  495.22000p  699.1048m  699.7680m 
  495.23000p  699.1051m  699.7681m 
  495.24000p  699.1053m  699.7681m 
  495.25000p  699.1056m  699.7681m 
  495.26000p  699.1059m  699.7682m 
  495.27000p  699.1061m  699.7682m 
  495.28000p  699.1064m  699.7683m 
  495.29000p  699.1067m  699.7683m 
  495.30000p  699.1070m  699.7683m 
  495.31000p  699.1072m  699.7684m 
  495.32000p  699.1075m  699.7684m 
  495.33000p  699.1078m  699.7685m 
  495.34000p  699.1080m  699.7685m 
  495.35000p  699.1083m  699.7685m 
  495.36000p  699.1086m  699.7686m 
  495.37000p  699.1089m  699.7686m 
  495.38000p  699.1091m  699.7687m 
  495.39000p  699.1094m  699.7687m 
  495.40000p  699.1097m  699.7687m 
  495.41000p  699.1099m  699.7688m 
  495.42000p  699.1102m  699.7688m 
  495.43000p  699.1105m  699.7689m 
  495.44000p  699.1107m  699.7689m 
  495.45000p  699.1110m  699.7689m 
  495.46000p  699.1113m  699.7690m 
  495.47000p  699.1116m  699.7690m 
  495.48000p  699.1118m  699.7691m 
  495.49000p  699.1121m  699.7691m 
  495.50000p  699.1124m  699.7691m 
  495.51000p  699.1126m  699.7692m 
  495.52000p  699.1129m  699.7692m 
  495.53000p  699.1132m  699.7693m 
  495.54000p  699.1135m  699.7693m 
  495.55000p  699.1137m  699.7693m 
  495.56000p  699.1140m  699.7694m 
  495.57000p  699.1143m  699.7694m 
  495.58000p  699.1145m  699.7695m 
  495.59000p  699.1148m  699.7695m 
  495.60000p  699.1151m  699.7695m 
  495.61000p  699.1154m  699.7696m 
  495.62000p  699.1156m  699.7696m 
  495.63000p  699.1159m  699.7697m 
  495.64000p  699.1162m  699.7697m 
  495.65000p  699.1164m  699.7697m 
  495.66000p  699.1167m  699.7698m 
  495.67000p  699.1170m  699.7698m 
  495.68000p  699.1172m  699.7699m 
  495.69000p  699.1175m  699.7699m 
  495.70000p  699.1178m  699.7699m 
  495.71000p  699.1181m  699.7700m 
  495.72000p  699.1183m  699.7700m 
  495.73000p  699.1186m  699.7701m 
  495.74000p  699.1189m  699.7701m 
  495.75000p  699.1191m  699.7701m 
  495.76000p  699.1194m  699.7702m 
  495.77000p  699.1197m  699.7702m 
  495.78000p  699.1200m  699.7702m 
  495.79000p  699.1202m  699.7703m 
  495.80000p  699.1205m  699.7703m 
  495.81000p  699.1208m  699.7704m 
  495.82000p  699.1210m  699.7704m 
  495.83000p  699.1213m  699.7704m 
  495.84000p  699.1216m  699.7705m 
  495.85000p  699.1218m  699.7705m 
  495.86000p  699.1221m  699.7706m 
  495.87000p  699.1224m  699.7706m 
  495.88000p  699.1227m  699.7706m 
  495.89000p  699.1229m  699.7707m 
  495.90000p  699.1232m  699.7707m 
  495.91000p  699.1235m  699.7708m 
  495.92000p  699.1237m  699.7708m 
  495.93000p  699.1240m  699.7708m 
  495.94000p  699.1243m  699.7709m 
  495.95000p  699.1246m  699.7709m 
  495.96000p  699.1248m  699.7710m 
  495.97000p  699.1251m  699.7710m 
  495.98000p  699.1254m  699.7710m 
  495.99000p  699.1256m  699.7711m 
  496.00000p  699.1259m  699.7711m 
  496.01000p  699.1262m  699.7712m 
  496.02000p  699.1265m  699.7712m 
  496.03000p  699.1267m  699.7712m 
  496.04000p  699.1270m  699.7713m 
  496.05000p  699.1273m  699.7713m 
  496.06000p  699.1275m  699.7714m 
  496.07000p  699.1278m  699.7714m 
  496.08000p  699.1281m  699.7714m 
  496.09000p  699.1283m  699.7715m 
  496.10000p  699.1286m  699.7715m 
  496.11000p  699.1289m  699.7716m 
  496.12000p  699.1292m  699.7716m 
  496.13000p  699.1294m  699.7716m 
  496.14000p  699.1297m  699.7717m 
  496.15000p  699.1300m  699.7717m 
  496.16000p  699.1302m  699.7718m 
  496.17000p  699.1305m  699.7718m 
  496.18000p  699.1308m  699.7718m 
  496.19000p  699.1311m  699.7719m 
  496.20000p  699.1313m  699.7719m 
  496.21000p  699.1316m  699.7720m 
  496.22000p  699.1319m  699.7720m 
  496.23000p  699.1321m  699.7720m 
  496.24000p  699.1324m  699.7721m 
  496.25000p  699.1327m  699.7721m 
  496.26000p  699.1330m  699.7722m 
  496.27000p  699.1332m  699.7722m 
  496.28000p  699.1335m  699.7722m 
  496.29000p  699.1338m  699.7723m 
  496.30000p  699.1340m  699.7723m 
  496.31000p  699.1343m  699.7724m 
  496.32000p  699.1346m  699.7724m 
  496.33000p  699.1348m  699.7724m 
  496.34000p  699.1351m  699.7725m 
  496.35000p  699.1354m  699.7725m 
  496.36000p  699.1357m  699.7725m 
  496.37000p  699.1359m  699.7726m 
  496.38000p  699.1362m  699.7726m 
  496.39000p  699.1365m  699.7727m 
  496.40000p  699.1367m  699.7727m 
  496.41000p  699.1370m  699.7727m 
  496.42000p  699.1373m  699.7728m 
  496.43000p  699.1376m  699.7728m 
  496.44000p  699.1378m  699.7729m 
  496.45000p  699.1381m  699.7729m 
  496.46000p  699.1384m  699.7729m 
  496.47000p  699.1386m  699.7730m 
  496.48000p  699.1389m  699.7730m 
  496.49000p  699.1392m  699.7731m 
  496.50000p  699.1395m  699.7731m 
  496.51000p  699.1397m  699.7731m 
  496.52000p  699.1400m  699.7732m 
  496.53000p  699.1403m  699.7732m 
  496.54000p  699.1405m  699.7733m 
  496.55000p  699.1408m  699.7733m 
  496.56000p  699.1411m  699.7733m 
  496.57000p  699.1413m  699.7734m 
  496.58000p  699.1416m  699.7734m 
  496.59000p  699.1419m  699.7735m 
  496.60000p  699.1422m  699.7735m 
  496.61000p  699.1424m  699.7735m 
  496.62000p  699.1427m  699.7736m 
  496.63000p  699.1430m  699.7736m 
  496.64000p  699.1432m  699.7737m 
  496.65000p  699.1435m  699.7737m 
  496.66000p  699.1438m  699.7737m 
  496.67000p  699.1441m  699.7738m 
  496.68000p  699.1443m  699.7738m 
  496.69000p  699.1446m  699.7739m 
  496.70000p  699.1449m  699.7739m 
  496.71000p  699.1451m  699.7739m 
  496.72000p  699.1454m  699.7740m 
  496.73000p  699.1457m  699.7740m 
  496.74000p  699.1459m  699.7741m 
  496.75000p  699.1462m  699.7741m 
  496.76000p  699.1465m  699.7741m 
  496.77000p  699.1468m  699.7742m 
  496.78000p  699.1470m  699.7742m 
  496.79000p  699.1473m  699.7743m 
  496.80000p  699.1476m  699.7743m 
  496.81000p  699.1478m  699.7743m 
  496.82000p  699.1481m  699.7744m 
  496.83000p  699.1484m  699.7744m 
  496.84000p  699.1487m  699.7745m 
  496.85000p  699.1489m  699.7745m 
  496.86000p  699.1492m  699.7745m 
  496.87000p  699.1495m  699.7746m 
  496.88000p  699.1497m  699.7746m 
  496.89000p  699.1500m  699.7747m 
  496.90000p  699.1503m  699.7747m 
  496.91000p  699.1506m  699.7747m 
  496.92000p  699.1508m  699.7748m 
  496.93000p  699.1511m  699.7748m 
  496.94000p  699.1514m  699.7748m 
  496.95000p  699.1516m  699.7749m 
  496.96000p  699.1519m  699.7749m 
  496.97000p  699.1522m  699.7750m 
  496.98000p  699.1524m  699.7750m 
  496.99000p  699.1527m  699.7750m 
  497.00000p  699.1530m  699.7751m 
  497.01000p  699.1533m  699.7751m 
  497.02000p  699.1535m  699.7752m 
  497.03000p  699.1538m  699.7752m 
  497.04000p  699.1541m  699.7752m 
  497.05000p  699.1543m  699.7753m 
  497.06000p  699.1546m  699.7753m 
  497.07000p  699.1549m  699.7754m 
  497.08000p  699.1552m  699.7754m 
  497.09000p  699.1554m  699.7754m 
  497.10000p  699.1557m  699.7755m 
  497.11000p  699.1560m  699.7755m 
  497.12000p  699.1562m  699.7756m 
  497.13000p  699.1565m  699.7756m 
  497.14000p  699.1568m  699.7756m 
  497.15000p  699.1571m  699.7757m 
  497.16000p  699.1573m  699.7757m 
  497.17000p  699.1576m  699.7758m 
  497.18000p  699.1579m  699.7758m 
  497.19000p  699.1581m  699.7758m 
  497.20000p  699.1584m  699.7759m 
  497.21000p  699.1587m  699.7759m 
  497.22000p  699.1589m  699.7760m 
  497.23000p  699.1592m  699.7760m 
  497.24000p  699.1595m  699.7760m 
  497.25000p  699.1598m  699.7761m 
  497.26000p  699.1600m  699.7761m 
  497.27000p  699.1603m  699.7762m 
  497.28000p  699.1606m  699.7762m 
  497.29000p  699.1608m  699.7762m 
  497.30000p  699.1611m  699.7763m 
  497.31000p  699.1614m  699.7763m 
  497.32000p  699.1617m  699.7764m 
  497.33000p  699.1619m  699.7764m 
  497.34000p  699.1622m  699.7764m 
  497.35000p  699.1625m  699.7765m 
  497.36000p  699.1627m  699.7765m 
  497.37000p  699.1630m  699.7766m 
  497.38000p  699.1633m  699.7766m 
  497.39000p  699.1636m  699.7766m 
  497.40000p  699.1638m  699.7767m 
  497.41000p  699.1641m  699.7767m 
  497.42000p  699.1644m  699.7768m 
  497.43000p  699.1646m  699.7768m 
  497.44000p  699.1649m  699.7768m 
  497.45000p  699.1652m  699.7769m 
  497.46000p  699.1654m  699.7769m 
  497.47000p  699.1657m  699.7770m 
  497.48000p  699.1660m  699.7770m 
  497.49000p  699.1663m  699.7770m 
  497.50000p  699.1665m  699.7771m 
  497.51000p  699.1668m  699.7771m 
  497.52000p  699.1671m  699.7771m 
  497.53000p  699.1673m  699.7772m 
  497.54000p  699.1676m  699.7772m 
  497.55000p  699.1679m  699.7773m 
  497.56000p  699.1682m  699.7773m 
  497.57000p  699.1684m  699.7773m 
  497.58000p  699.1687m  699.7774m 
  497.59000p  699.1690m  699.7774m 
  497.60000p  699.1692m  699.7775m 
  497.61000p  699.1695m  699.7775m 
  497.62000p  699.1698m  699.7775m 
  497.63000p  699.1700m  699.7776m 
  497.64000p  699.1703m  699.7776m 
  497.65000p  699.1706m  699.7777m 
  497.66000p  699.1709m  699.7777m 
  497.67000p  699.1711m  699.7777m 
  497.68000p  699.1714m  699.7778m 
  497.69000p  699.1717m  699.7778m 
  497.70000p  699.1719m  699.7779m 
  497.71000p  699.1722m  699.7779m 
  497.72000p  699.1725m  699.7779m 
  497.73000p  699.1728m  699.7780m 
  497.74000p  699.1730m  699.7780m 
  497.75000p  699.1733m  699.7781m 
  497.76000p  699.1736m  699.7781m 
  497.77000p  699.1738m  699.7781m 
  497.78000p  699.1741m  699.7782m 
  497.79000p  699.1744m  699.7782m 
  497.80000p  699.1747m  699.7783m 
  497.81000p  699.1749m  699.7783m 
  497.82000p  699.1752m  699.7783m 
  497.83000p  699.1755m  699.7784m 
  497.84000p  699.1757m  699.7784m 
  497.85000p  699.1760m  699.7785m 
  497.86000p  699.1763m  699.7785m 
  497.87000p  699.1765m  699.7785m 
  497.88000p  699.1768m  699.7786m 
  497.89000p  699.1771m  699.7786m 
  497.90000p  699.1774m  699.7787m 
  497.91000p  699.1776m  699.7787m 
  497.92000p  699.1779m  699.7787m 
  497.93000p  699.1782m  699.7788m 
  497.94000p  699.1784m  699.7788m 
  497.95000p  699.1787m  699.7789m 
  497.96000p  699.1790m  699.7789m 
  497.97000p  699.1793m  699.7789m 
  497.98000p  699.1795m  699.7790m 
  497.99000p  699.1798m  699.7790m 
  498.00000p  699.1801m  699.7791m 
  498.01000p  699.1803m  699.7791m 
  498.02000p  699.1806m  699.7791m 
  498.03000p  699.1809m  699.7792m 
  498.04000p  699.1812m  699.7792m 
  498.05000p  699.1814m  699.7793m 
  498.06000p  699.1817m  699.7793m 
  498.07000p  699.1820m  699.7793m 
  498.08000p  699.1822m  699.7794m 
  498.09000p  699.1825m  699.7794m 
  498.10000p  699.1828m  699.7794m 
  498.11000p  699.1830m  699.7795m 
  498.12000p  699.1833m  699.7795m 
  498.13000p  699.1836m  699.7796m 
  498.14000p  699.1839m  699.7796m 
  498.15000p  699.1841m  699.7796m 
  498.16000p  699.1844m  699.7797m 
  498.17000p  699.1847m  699.7797m 
  498.18000p  699.1849m  699.7798m 
  498.19000p  699.1852m  699.7798m 
  498.20000p  699.1855m  699.7798m 
  498.21000p  699.1858m  699.7799m 
  498.22000p  699.1860m  699.7799m 
  498.23000p  699.1863m  699.7800m 
  498.24000p  699.1866m  699.7800m 
  498.25000p  699.1868m  699.7800m 
  498.26000p  699.1871m  699.7801m 
  498.27000p  699.1874m  699.7801m 
  498.28000p  699.1877m  699.7802m 
  498.29000p  699.1879m  699.7802m 
  498.30000p  699.1882m  699.7802m 
  498.31000p  699.1885m  699.7803m 
  498.32000p  699.1887m  699.7803m 
  498.33000p  699.1890m  699.7804m 
  498.34000p  699.1893m  699.7804m 
  498.35000p  699.1895m  699.7804m 
  498.36000p  699.1898m  699.7805m 
  498.37000p  699.1901m  699.7805m 
  498.38000p  699.1904m  699.7806m 
  498.39000p  699.1906m  699.7806m 
  498.40000p  699.1909m  699.7806m 
  498.41000p  699.1912m  699.7807m 
  498.42000p  699.1914m  699.7807m 
  498.43000p  699.1917m  699.7808m 
  498.44000p  699.1920m  699.7808m 
  498.45000p  699.1923m  699.7808m 
  498.46000p  699.1925m  699.7809m 
  498.47000p  699.1928m  699.7809m 
  498.48000p  699.1931m  699.7810m 
  498.49000p  699.1933m  699.7810m 
  498.50000p  699.1936m  699.7810m 
  498.51000p  699.1939m  699.7811m 
  498.52000p  699.1942m  699.7811m 
  498.53000p  699.1944m  699.7812m 
  498.54000p  699.1947m  699.7812m 
  498.55000p  699.1950m  699.7812m 
  498.56000p  699.1952m  699.7813m 
  498.57000p  699.1955m  699.7813m 
  498.58000p  699.1958m  699.7814m 
  498.59000p  699.1960m  699.7814m 
  498.60000p  699.1963m  699.7814m 
  498.61000p  699.1966m  699.7815m 
  498.62000p  699.1969m  699.7815m 
  498.63000p  699.1971m  699.7816m 
  498.64000p  699.1974m  699.7816m 
  498.65000p  699.1977m  699.7816m 
  498.66000p  699.1979m  699.7817m 
  498.67000p  699.1982m  699.7817m 
  498.68000p  699.1985m  699.7817m 
  498.69000p  699.1988m  699.7818m 
  498.70000p  699.1990m  699.7818m 
  498.71000p  699.1993m  699.7819m 
  498.72000p  699.1996m  699.7819m 
  498.73000p  699.1998m  699.7819m 
  498.74000p  699.2001m  699.7820m 
  498.75000p  699.2004m  699.7820m 
  498.76000p  699.2006m  699.7821m 
  498.77000p  699.2009m  699.7821m 
  498.78000p  699.2012m  699.7821m 
  498.79000p  699.2015m  699.7822m 
  498.80000p  699.2017m  699.7822m 
  498.81000p  699.2020m  699.7823m 
  498.82000p  699.2023m  699.7823m 
  498.83000p  699.2025m  699.7823m 
  498.84000p  699.2028m  699.7824m 
  498.85000p  699.2031m  699.7824m 
  498.86000p  699.2034m  699.7825m 
  498.87000p  699.2036m  699.7825m 
  498.88000p  699.2039m  699.7825m 
  498.89000p  699.2042m  699.7826m 
  498.90000p  699.2044m  699.7826m 
  498.91000p  699.2047m  699.7827m 
  498.92000p  699.2050m  699.7827m 
  498.93000p  699.2053m  699.7827m 
  498.94000p  699.2055m  699.7828m 
  498.95000p  699.2058m  699.7828m 
  498.96000p  699.2061m  699.7829m 
  498.97000p  699.2063m  699.7829m 
  498.98000p  699.2066m  699.7829m 
  498.99000p  699.2069m  699.7830m 
  499.00000p  699.2071m  699.7830m 
  499.01000p  699.2074m  699.7831m 
  499.02000p  699.2077m  699.7831m 
  499.03000p  699.2080m  699.7831m 
  499.04000p  699.2082m  699.7832m 
  499.05000p  699.2085m  699.7832m 
  499.06000p  699.2088m  699.7833m 
  499.07000p  699.2090m  699.7833m 
  499.08000p  699.2093m  699.7833m 
  499.09000p  699.2096m  699.7834m 
  499.10000p  699.2099m  699.7834m 
  499.11000p  699.2101m  699.7835m 
  499.12000p  699.2104m  699.7835m 
  499.13000p  699.2107m  699.7835m 
  499.14000p  699.2109m  699.7836m 
  499.15000p  699.2112m  699.7836m 
  499.16000p  699.2115m  699.7837m 
  499.17000p  699.2118m  699.7837m 
  499.18000p  699.2120m  699.7837m 
  499.19000p  699.2123m  699.7838m 
  499.20000p  699.2126m  699.7838m 
  499.21000p  699.2128m  699.7839m 
  499.22000p  699.2131m  699.7839m 
  499.23000p  699.2134m  699.7839m 
  499.24000p  699.2136m  699.7840m 
  499.25000p  699.2139m  699.7840m 
  499.26000p  699.2142m  699.7840m 
  499.27000p  699.2145m  699.7841m 
  499.28000p  699.2147m  699.7841m 
  499.29000p  699.2150m  699.7842m 
  499.30000p  699.2153m  699.7842m 
  499.31000p  699.2155m  699.7842m 
  499.32000p  699.2158m  699.7843m 
  499.33000p  699.2161m  699.7843m 
  499.34000p  699.2164m  699.7844m 
  499.35000p  699.2166m  699.7844m 
  499.36000p  699.2169m  699.7844m 
  499.37000p  699.2172m  699.7845m 
  499.38000p  699.2174m  699.7845m 
  499.39000p  699.2177m  699.7846m 
  499.40000p  699.2180m  699.7846m 
  499.41000p  699.2183m  699.7846m 
  499.42000p  699.2185m  699.7847m 
  499.43000p  699.2188m  699.7847m 
  499.44000p  699.2191m  699.7848m 
  499.45000p  699.2193m  699.7848m 
  499.46000p  699.2196m  699.7848m 
  499.47000p  699.2199m  699.7849m 
  499.48000p  699.2201m  699.7849m 
  499.49000p  699.2204m  699.7850m 
  499.50000p  699.2207m  699.7850m 
  499.51000p  699.2210m  699.7850m 
  499.52000p  699.2212m  699.7851m 
  499.53000p  699.2215m  699.7851m 
  499.54000p  699.2218m  699.7852m 
  499.55000p  699.2220m  699.7852m 
  499.56000p  699.2223m  699.7852m 
  499.57000p  699.2226m  699.7853m 
  499.58000p  699.2229m  699.7853m 
  499.59000p  699.2231m  699.7854m 
  499.60000p  699.2234m  699.7854m 
  499.61000p  699.2237m  699.7854m 
  499.62000p  699.2239m  699.7855m 
  499.63000p  699.2242m  699.7855m 
  499.64000p  699.2245m  699.7856m 
  499.65000p  699.2247m  699.7856m 
  499.66000p  699.2250m  699.7856m 
  499.67000p  699.2253m  699.7857m 
  499.68000p  699.2256m  699.7857m 
  499.69000p  699.2258m  699.7858m 
  499.70000p  699.2261m  699.7858m 
  499.71000p  699.2264m  699.7858m 
  499.72000p  699.2266m  699.7859m 
  499.73000p  699.2269m  699.7859m 
  499.74000p  699.2272m  699.7860m 
  499.75000p  699.2275m  699.7860m 
  499.76000p  699.2277m  699.7860m 
  499.77000p  699.2280m  699.7861m 
  499.78000p  699.2283m  699.7861m 
  499.79000p  699.2285m  699.7862m 
  499.80000p  699.2288m  699.7862m 
  499.81000p  699.2291m  699.7862m 
  499.82000p  699.2294m  699.7863m 
  499.83000p  699.2296m  699.7863m 
  499.84000p  699.2299m  699.7863m 
  499.85000p  699.2302m  699.7864m 
  499.86000p  699.2304m  699.7864m 
  499.87000p  699.2307m  699.7865m 
  499.88000p  699.2310m  699.7865m 
  499.89000p  699.2312m  699.7865m 
  499.90000p  699.2315m  699.7866m 
  499.91000p  699.2318m  699.7866m 
  499.92000p  699.2321m  699.7867m 
  499.93000p  699.2323m  699.7867m 
  499.94000p  699.2326m  699.7867m 
  499.95000p  699.2329m  699.7868m 
  499.96000p  699.2331m  699.7868m 
  499.97000p  699.2334m  699.7869m 
  499.98000p  699.2337m  699.7869m 
  499.99000p  699.2340m  699.7869m 
  500.00000p  699.2342m  699.7870m 
y

          ***** job concluded
 ******  
 * eda yan

 ****** job statistics summary tnom=  25.000 temp=  25.000 ******
  
 ******  Machine Information  ******
 CPU:
 model name	: Intel(R) Xeon(R) CPU E7- 8837  @ 2.67GHz
 cpu MHz	: 2663.941
  
 OS:
 Linux version 3.16.0-10-amd64 (debian-kernel@lists.debian.org) (gcc version 4.9.2 (Debian 4.9.2-10+deb8u2) ) #1 SMP Debian 3.16.81-1 (2020-01-17)


  ******  HSPICE Threads Information  ******

  Command Line Threads Count :     1
  Available CPU Count        :    32
  Actual Threads Count       :     1


  ******  Circuit Statistics  ******
  # nodes       =     116 # elements   =      34
  # resistors   =       1 # capacitors =       2 # inductors   =       0
  # mutual_inds =       0 # vccs       =       0 # vcvs        =       0
  # cccs        =       0 # ccvs       =       0 # volt_srcs   =       7
  # curr_srcs   =       0 # diodes     =       0 # bjts        =       0
  # jfets       =       0 # mosfets    =      24 # U elements  =       0
  # T elements  =       0 # W elements =       0 # B elements  =       0
  # S elements  =       0 # P elements =       0 # va device   =       0
  # vector_srcs =       0 # N elements =       0


  ******  Runtime Statistics (seconds)  ******

  analysis           time    # points   tot. iter  conv.iter
  op point           0.01           1           9
  transient          0.18       50001         361         134 rev=         6
  readin             0.03
  errchk             0.01
  setup              0.01
  output             0.00


           peak memory used        312.72 megabytes
           total cpu time            1.04 seconds
           total elapsed time        0.67 seconds
           job started at     01:57:07 05/12/2020
           job ended   at     01:57:07 05/12/2020



>info:         ***** hspice job concluded
 lic: Release hspice token(s) 
 lic: total license checkout elapse time:        0.07(s)
