Using: /opt/synopsys/hspice/O-2018.09-SP2-2/hspice/linux64/hspice inv.sp
 ****** HSPICE -- O-2018.09-SP2-2 linux64 (May  9 2019) ******                  
  Copyright (c) 1986 - 2020 by Synopsys, Inc. All Rights Reserved.              
  This software and the associated documentation are proprietary
  to Synopsys, Inc. This software may only be used in accordance
  with the terms and conditions of a written license agreement with
  Synopsys, Inc. All other use, reproduction, or distribution of
  this software is strictly prohibited.
  Input File: inv.sp                                                            
  Command line options: /opt/synopsys/hspice/O-2018.09-SP2-2/hspice/linux64/hspice inv.sp
  Start time: Mon May 18 11:57:38 2020
 lic:  
 lic: FLEXlm: SDK_11.7.3 
 lic: USER:   mitsushij            HOSTNAME: sahand 
 lic: HOSTID: "80c16e72eecb"       PID:      36893 
 lic: Using FLEXlm license file: 
 lic: 1720@ics-lic2.usc.edu 
 lic: Checkout 1 hspice 
 lic: License/Maintenance for hspice will expire on 30-jun-2021/2019.06 
 lic: 1(in_use)/50(total) FLOATING license(s) on SERVER 1720@ics-lic2.usc.edu 
 lic:   
1****** HSPICE -- O-2018.09-SP2-2 linux64 (May  9 2019) ******                  
 ******  
 * eda yan

 ****** circuit name directory
 circuit number to circuit name directory
   number circuitname                     definition         multiplier
        0 main circuit
        1 xnot1_1.                        not1               1.00 
  **info** (inv.sp:18) DC voltage reset to initial transient source value in source 0:vn1. new dc=0.0000D+00
  **warning** (nmos:mn1 (./gate_inventory_gen.sp:5)) Warning:  Acde = 0.231197 may be too small in BSIM4 model with w=1.6e-08 l=1.6e-08.
  

  **warning** the following singular supplies were terminated to 1 meg resistor 
          supply       node1            node2
(inv.sp:10)vlo                     0:lo               defined in subckt 0                     0:0                defined in subckt 0               
      

Element variations(Local):   element              parameter
 **info** set option symb=1 internally to help for convergence.
 *****************************************************************
 ******  option summary
 ******
 runlvl  = 3         bypass  = 2.0000    
 **info** dc convergence successful at Newton-Raphson method 
 ******  
 * eda yan

 ****** operating point information tnom=  25.000 temp=  25.000 ******
 ****** operating point status is all       simulation time is     0.     
    node    =voltage      node    =voltage      node    =voltage

 +0:hi      = 700.0000m 0:lo      =   0.      0:n1      =   0.     
 +0:n2      = 699.8552m


 **** voltage sources

 subckt                                   
 element  0:vhi      0:vlo      0:vn1     
  volts    700.0000m    0.         0.     
  current   -6.7847n    0.         4.0453p
  power      4.7493n    0.         0.     

     total voltage source power dissipation=    4.7493n       watts




 **** mosfets


 subckt   xnot1_1    xnot1_1   
 element  1:mp1      1:mn1     
 model    0:pmos     0:nmos    
 region   Linear     Subth     
  id        -6.7845n    6.7799n
  ibs     -4.046e-25  6.657e-25
  ibd      200.9810a -709.8552f
  vgs     -700.0000m    0.     
  vds     -144.7850u  699.8552m
  vbs        0.         0.     
  vth     -394.7224m  260.1873m
  vdsat   -294.3193m   41.5710m
  vod     -305.2776m -260.1873m
  beta     201.1279u    1.5152m
  gam eff  400.0000m  400.0000m
  gm        15.9928n  167.7719n
  gds       46.8560u   55.3183n
  gmb        4.1016n   37.9711n
  cdtot     32.2803a    8.0258a
  cgtot     24.9834a    3.9605a
  cstot     35.5306a   14.8957a
  cbtot     42.8395a   20.0093a
  cgs       14.5118a    2.1214a
  cgd       10.0519a    1.3151a



 ******
 * eda yan

 ****** transient analysis tnom=  25.000 temp=  25.000 ******
x

 time         voltage   
             n2         
    0.        699.8552m 
  100.00000f  699.8552m 
  200.00000f  699.8552m 
  300.00000f  699.8552m 
  400.00000f  699.8552m 
  500.00000f  699.8552m 
  600.00000f  699.8552m 
  700.00000f  699.8552m 
  800.00000f  699.8552m 
  900.00000f  699.8552m 
    1.00000p  699.8552m 
    1.10000p  699.8552m 
    1.20000p  699.8552m 
    1.30000p  699.8552m 
    1.40000p  699.8552m 
    1.50000p  699.8552m 
    1.60000p  699.8552m 
    1.70000p  699.8552m 
    1.80000p  699.8552m 
    1.90000p  699.8552m 
    2.00000p  699.8552m 
    2.10000p  699.8552m 
    2.20000p  699.8552m 
    2.30000p  699.8552m 
    2.40000p  699.8552m 
    2.50000p  699.8552m 
    2.60000p  699.8552m 
    2.70000p  699.8552m 
    2.80000p  699.8552m 
    2.90000p  699.8552m 
    3.00000p  699.8552m 
    3.10000p  699.8552m 
    3.20000p  699.8552m 
    3.30000p  699.8552m 
    3.40000p  699.8552m 
    3.50000p  699.8552m 
    3.60000p  699.8552m 
    3.70000p  699.8552m 
    3.80000p  699.8552m 
    3.90000p  699.8552m 
    4.00000p  699.8552m 
    4.10000p  699.8552m 
    4.20000p  699.8552m 
    4.30000p  699.8552m 
    4.40000p  699.8552m 
    4.50000p  699.8552m 
    4.60000p  699.8552m 
    4.70000p  699.8552m 
    4.80000p  699.8552m 
    4.90000p  699.8552m 
    5.00000p  699.8552m 
    5.10000p  699.8552m 
    5.20000p  699.8552m 
    5.30000p  699.8552m 
    5.40000p  699.8552m 
    5.50000p  699.8552m 
    5.60000p  699.8552m 
    5.70000p  699.8552m 
    5.80000p  699.8552m 
    5.90000p  699.8552m 
    6.00000p  699.8552m 
    6.10000p  699.8552m 
    6.20000p  699.8552m 
    6.30000p  699.8552m 
    6.40000p  699.8552m 
    6.50000p  699.8552m 
    6.60000p  699.8552m 
    6.70000p  699.8552m 
    6.80000p  699.8552m 
    6.90000p  699.8552m 
    7.00000p  699.8552m 
    7.10000p  699.8552m 
    7.20000p  699.8552m 
    7.30000p  699.8552m 
    7.40000p  699.8552m 
    7.50000p  699.8552m 
    7.60000p  699.8552m 
    7.70000p  699.8552m 
    7.80000p  699.8552m 
    7.90000p  699.8552m 
    8.00000p  699.8552m 
    8.10000p  699.8552m 
    8.20000p  699.8552m 
    8.30000p  699.8552m 
    8.40000p  699.8552m 
    8.50000p  699.8552m 
    8.60000p  699.8552m 
    8.70000p  699.8552m 
    8.80000p  699.8552m 
    8.90000p  699.8552m 
    9.00000p  699.8552m 
    9.10000p  699.8552m 
    9.20000p  699.8552m 
    9.30000p  699.8552m 
    9.40000p  699.8552m 
    9.50000p  699.8552m 
    9.60000p  699.8552m 
    9.70000p  699.8552m 
    9.80000p  699.8552m 
    9.90000p  699.8552m 
   10.00000p  699.8552m 
   10.10000p  699.9491m 
   10.20000p  700.0431m 
   10.30000p  700.1370m 
   10.40000p  700.2309m 
   10.50000p  700.3248m 
   10.60000p  700.4187m 
   10.70000p  700.5127m 
   10.80000p  700.6066m 
   10.90000p  700.7005m 
   11.00000p  700.7944m 
   11.10000p  700.8884m 
   11.20000p  700.9823m 
   11.30000p  701.0762m 
   11.40000p  701.1701m 
   11.50000p  701.2640m 
   11.60000p  701.3580m 
   11.70000p  701.4519m 
   11.80000p  701.5458m 
   11.90000p  701.6397m 
   12.00000p  701.7337m 
   12.10000p  701.8276m 
   12.20000p  701.9215m 
   12.30000p  702.0154m 
   12.40000p  702.1093m 
   12.50000p  702.2033m 
   12.60000p  702.2706m 
   12.70000p  702.3379m 
   12.80000p  702.4052m 
   12.90000p  702.4725m 
   13.00000p  702.5398m 
   13.10000p  702.6072m 
   13.20000p  702.6712m 
   13.30000p  702.7187m 
   13.40000p  702.7662m 
   13.50000p  702.8136m 
   13.60000p  702.8611m 
   13.70000p  702.9086m 
   13.80000p  702.9560m 
   13.90000p  703.0035m 
   14.00000p  703.0510m 
   14.10000p  703.0985m 
   14.20000p  703.1459m 
   14.30000p  703.1934m 
   14.40000p  703.2409m 
   14.50000p  703.2884m 
   14.60000p  703.3358m 
   14.70000p  703.3833m 
   14.80000p  703.4308m 
   14.90000p  703.4782m 
   15.00000p  703.5257m 
   15.10000p  703.5732m 
   15.20000p  703.6207m 
   15.30000p  703.6681m 
   15.40000p  703.6814m 
   15.50000p  703.6118m 
   15.60000p  703.5422m 
   15.70000p  703.4726m 
   15.80000p  703.4031m 
   15.90000p  703.3335m 
   16.00000p  703.2639m 
   16.10000p  703.1943m 
   16.20000p  703.1247m 
   16.30000p  703.0551m 
   16.40000p  702.9855m 
   16.50000p  702.9160m 
   16.60000p  702.8464m 
   16.70000p  702.7768m 
   16.80000p  702.7072m 
   16.90000p  702.6376m 
   17.00000p  702.5680m 
   17.10000p  702.4984m 
   17.20000p  702.4288m 
   17.30000p  702.3593m 
   17.40000p  702.2897m 
   17.50000p  702.2201m 
   17.60000p  702.1505m 
   17.70000p  702.0809m 
   17.80000p  702.0113m 
   17.90000p  701.9417m 
   18.00000p  701.8722m 
   18.10000p  701.8026m 
   18.20000p  701.7330m 
   18.30000p  701.6634m 
   18.40000p  701.5938m 
   18.50000p  701.5242m 
   18.60000p  701.4546m 
   18.70000p  701.3850m 
   18.80000p  701.3155m 
   18.90000p  701.2459m 
   19.00000p  701.1763m 
   19.10000p  701.1067m 
   19.20000p  701.0371m 
   19.30000p  700.9675m 
   19.40000p  700.8979m 
   19.50000p  700.8283m 
   19.60000p  700.7588m 
   19.70000p  700.6892m 
   19.80000p  700.6196m 
   19.90000p  700.5500m 
   20.00000p  700.4804m 
   20.10000p  700.4108m 
   20.20000p  700.3412m 
   20.30000p  700.2717m 
   20.40000p  700.0664m 
   20.50000p  699.5324m 
   20.60000p  698.9985m 
   20.70000p  698.4645m 
   20.80000p  697.9306m 
   20.90000p  697.3966m 
   21.00000p  696.8627m 
   21.10000p  696.3287m 
   21.20000p  695.7948m 
   21.30000p  695.2608m 
   21.40000p  694.7268m 
   21.50000p  694.1929m 
   21.60000p  693.6589m 
   21.70000p  693.1250m 
   21.80000p  692.5910m 
   21.90000p  692.0571m 
   22.00000p  691.5231m 
   22.10000p  690.9891m 
   22.20000p  690.4552m 
   22.30000p  689.9212m 
   22.40000p  689.3873m 
   22.50000p  688.8533m 
   22.60000p  688.3194m 
   22.70000p  687.7854m 
   22.80000p  687.2515m 
   22.90000p  686.7175m 
   23.00000p  686.1835m 
   23.10000p  685.6496m 
   23.20000p  685.1156m 
   23.30000p  684.5817m 
   23.40000p  684.0477m 
   23.50000p  683.5138m 
   23.60000p  682.9798m 
   23.70000p  682.4458m 
   23.80000p  681.9119m 
   23.90000p  681.3779m 
   24.00000p  680.8440m 
   24.10000p  680.3100m 
   24.20000p  679.7761m 
   24.30000p  679.2421m 
   24.40000p  678.7082m 
   24.50000p  678.1742m 
   24.60000p  677.6402m 
   24.70000p  677.1063m 
   24.80000p  676.5723m 
   24.90000p  676.0384m 
   25.00000p  675.5044m 
   25.10000p  674.9705m 
   25.20000p  674.4365m 
   25.30000p  673.9025m 
   25.40000p  673.0485m 
   25.50000p  671.4187m 
   25.60000p  669.7890m 
   25.70000p  668.1593m 
   25.80000p  666.5296m 
   25.90000p  664.8999m 
   26.00000p  663.2701m 
   26.10000p  661.6404m 
   26.20000p  660.0107m 
   26.30000p  658.3810m 
   26.40000p  656.7512m 
   26.50000p  655.1215m 
   26.60000p  653.4918m 
   26.70000p  651.8621m 
   26.80000p  650.2324m 
   26.90000p  648.6026m 
   27.00000p  646.9729m 
   27.10000p  645.3432m 
   27.20000p  643.7135m 
   27.30000p  642.0838m 
   27.40000p  640.4540m 
   27.50000p  638.8243m 
   27.60000p  637.1946m 
   27.70000p  635.5649m 
   27.80000p  633.9351m 
   27.90000p  632.3054m 
   28.00000p  630.6757m 
   28.10000p  629.0460m 
   28.20000p  627.4163m 
   28.30000p  625.7865m 
   28.40000p  624.1568m 
   28.50000p  622.5271m 
   28.60000p  620.8974m 
   28.70000p  619.2676m 
   28.80000p  617.6379m 
   28.90000p  616.0082m 
   29.00000p  614.3785m 
   29.10000p  612.7488m 
   29.20000p  611.1190m 
   29.30000p  609.4893m 
   29.40000p  607.8596m 
   29.50000p  606.2299m 
   29.60000p  604.6002m 
   29.70000p  602.9704m 
   29.80000p  601.3407m 
   29.90000p  599.7110m 
   30.00000p  598.0813m 
   30.10000p  596.4515m 
   30.20000p  594.8218m 
   30.30000p  593.1921m 
   30.40000p  591.1865m 
   30.50000p  588.2700m 
   30.60000p  585.3535m 
   30.70000p  582.4370m 
   30.80000p  579.5205m 
   30.90000p  576.6040m 
   31.00000p  573.6875m 
   31.10000p  570.7710m 
   31.20000p  567.8545m 
   31.30000p  564.9380m 
   31.40000p  562.0215m 
   31.50000p  559.1051m 
   31.60000p  556.1886m 
   31.70000p  553.2721m 
   31.80000p  550.3556m 
   31.90000p  547.4391m 
   32.00000p  544.5226m 
   32.10000p  541.6061m 
   32.20000p  538.6896m 
   32.30000p  535.7731m 
   32.40000p  532.8566m 
   32.50000p  529.9401m 
   32.60000p  527.0236m 
   32.70000p  524.1072m 
   32.80000p  521.1907m 
   32.90000p  518.2742m 
   33.00000p  515.3577m 
   33.10000p  512.4412m 
   33.20000p  509.5247m 
   33.30000p  506.6082m 
   33.40000p  503.6917m 
   33.50000p  500.7752m 
   33.60000p  497.8587m 
   33.70000p  494.9422m 
   33.80000p  492.0258m 
   33.90000p  489.1093m 
   34.00000p  486.1928m 
   34.10000p  483.2763m 
   34.20000p  480.3598m 
   34.30000p  477.4433m 
   34.40000p  474.5268m 
   34.50000p  471.6103m 
   34.60000p  468.6938m 
   34.70000p  465.7773m 
   34.80000p  462.8608m 
   34.90000p  459.9443m 
   35.00000p  457.0279m 
   35.10000p  454.1114m 
   35.20000p  451.0267m 
   35.30000p  447.1006m 
   35.40000p  443.1745m 
   35.50000p  439.2484m 
   35.60000p  435.3223m 
   35.70000p  431.3962m 
   35.80000p  427.4701m 
   35.90000p  423.5439m 
   36.00000p  419.6178m 
   36.10000p  415.6917m 
   36.20000p  411.7656m 
   36.30000p  407.8395m 
   36.40000p  403.9134m 
   36.50000p  399.9873m 
   36.60000p  396.0612m 
   36.70000p  392.1351m 
   36.80000p  388.2090m 
   36.90000p  384.2829m 
   37.00000p  380.3568m 
   37.10000p  376.4307m 
   37.20000p  372.5046m 
   37.30000p  368.5785m 
   37.40000p  364.6524m 
   37.50000p  360.7263m 
   37.60000p  356.8001m 
   37.70000p  352.8740m 
   37.80000p  348.9479m 
   37.90000p  345.0218m 
   38.00000p  341.0957m 
   38.10000p  337.1696m 
   38.20000p  333.2435m 
   38.30000p  329.3174m 
   38.40000p  325.3913m 
   38.50000p  321.4652m 
   38.60000p  317.5391m 
   38.70000p  313.6130m 
   38.80000p  309.6869m 
   38.90000p  305.7608m 
   39.00000p  301.8347m 
   39.10000p  297.9086m 
   39.20000p  293.9825m 
   39.30000p  290.0564m 
   39.40000p  286.1302m 
   39.50000p  282.2041m 
   39.60000p  278.2780m 
   39.70000p  274.3519m 
   39.80000p  270.4258m 
   39.90000p  266.4997m 
   40.00000p  262.5736m 
   40.10000p  258.6475m 
   40.20000p  254.7878m 
   40.30000p  251.2600m 
   40.40000p  247.7322m 
   40.50000p  244.2044m 
   40.60000p  240.6766m 
   40.70000p  237.1487m 
   40.80000p  233.6209m 
   40.90000p  230.0931m 
   41.00000p  226.5653m 
   41.10000p  223.0375m 
   41.20000p  219.5097m 
   41.30000p  215.9819m 
   41.40000p  212.4541m 
   41.50000p  208.9263m 
   41.60000p  205.3985m 
   41.70000p  201.8707m 
   41.80000p  198.3429m 
   41.90000p  194.8151m 
   42.00000p  191.2873m 
   42.10000p  187.7595m 
   42.20000p  184.2317m 
   42.30000p  180.7039m 
   42.40000p  177.1761m 
   42.50000p  173.6483m 
   42.60000p  170.1205m 
   42.70000p  166.5927m 
   42.80000p  163.0649m 
   42.90000p  159.5371m 
   43.00000p  156.0093m 
   43.10000p  152.4815m 
   43.20000p  148.9537m 
   43.30000p  145.4259m 
   43.40000p  141.8981m 
   43.50000p  138.3703m 
   43.60000p  134.8425m 
   43.70000p  131.3147m 
   43.80000p  127.7869m 
   43.90000p  124.2591m 
   44.00000p  120.7313m 
   44.10000p  117.2035m 
   44.20000p  113.6757m 
   44.30000p  110.1479m 
   44.40000p  106.6201m 
   44.50000p  103.0923m 
   44.60000p   99.5645m 
   44.70000p   96.0367m 
   44.80000p   92.5089m 
   44.90000p   88.9811m 
   45.00000p   85.4533m 
   45.10000p   81.9255m 
   45.20000p   78.7064m 
   45.30000p   77.0317m 
   45.40000p   75.3570m 
   45.50000p   73.6822m 
   45.60000p   72.0075m 
   45.70000p   70.3328m 
   45.80000p   68.6581m 
   45.90000p   66.9833m 
   46.00000p   65.3086m 
   46.10000p   63.6339m 
   46.20000p   61.9592m 
   46.30000p   60.2844m 
   46.40000p   58.6097m 
   46.50000p   56.9350m 
   46.60000p   55.2603m 
   46.70000p   53.5855m 
   46.80000p   51.9108m 
   46.90000p   50.2361m 
   47.00000p   48.5614m 
   47.10000p   46.8866m 
   47.20000p   45.2119m 
   47.30000p   43.5372m 
   47.40000p   41.8625m 
   47.50000p   40.1878m 
   47.60000p   38.5130m 
   47.70000p   36.8383m 
   47.80000p   35.1636m 
   47.90000p   33.4889m 
   48.00000p   31.8141m 
   48.10000p   30.1394m 
   48.20000p   28.4647m 
   48.30000p   26.7900m 
   48.40000p   25.1152m 
   48.50000p   23.4405m 
   48.60000p   21.7658m 
   48.70000p   20.0911m 
   48.80000p   18.4163m 
   48.90000p   17.4517m 
   49.00000p   16.8700m 
   49.10000p   16.2882m 
   49.20000p   15.7065m 
   49.30000p   15.1247m 
   49.40000p   14.5430m 
   49.50000p   13.9612m 
   49.60000p   13.3795m 
   49.70000p   12.7978m 
   49.80000p   12.2160m 
   49.90000p   11.6343m 
   50.00000p   11.0525m 
   50.10000p   10.7665m 
   50.20000p   10.4805m 
   50.30000p   10.1945m 
   50.40000p    9.9085m 
   50.50000p    9.6225m 
   50.60000p    9.3365m 
   50.70000p    9.0505m 
   50.80000p    8.7645m 
   50.90000p    8.4785m 
   51.00000p    8.1925m 
   51.10000p    7.9065m 
   51.20000p    7.6205m 
   51.30000p    7.3345m 
   51.40000p    7.0485m 
   51.50000p    6.7626m 
   51.60000p    6.4766m 
   51.70000p    6.1906m 
   51.80000p    5.9046m 
   51.90000p    5.6315m 
   52.00000p    5.3815m 
   52.10000p    5.1316m 
   52.20000p    4.8816m 
   52.30000p    4.6316m 
   52.40000p    4.4217m 
   52.50000p    4.2720m 
   52.60000p    4.1222m 
   52.70000p    3.9725m 
   52.80000p    3.8228m 
   52.90000p    3.6730m 
   53.00000p    3.5233m 
   53.10000p    3.3735m 
   53.20000p    3.2238m 
   53.30000p    3.0740m 
   53.40000p    2.9243m 
   53.50000p    2.7745m 
   53.60000p    2.6248m 
   53.70000p    2.4751m 
   53.80000p    2.3253m 
   53.90000p    2.1756m 
   54.00000p    2.0844m 
   54.10000p    2.0454m 
   54.20000p    2.0064m 
   54.30000p    1.9674m 
   54.40000p    1.9284m 
   54.50000p    1.8895m 
   54.60000p    1.8505m 
   54.70000p    1.8115m 
   54.80000p    1.7725m 
   54.90000p    1.7335m 
   55.00000p    1.6945m 
   55.10000p    1.6555m 
   55.20000p    1.6166m 
   55.30000p    1.5776m 
   55.40000p    1.5386m 
   55.50000p    1.4996m 
   55.60000p    1.4606m 
   55.70000p    1.4216m 
   55.80000p    1.3826m 
   55.90000p    1.3437m 
   56.00000p    1.3047m 
   56.10000p    1.2657m 
   56.20000p    1.2267m 
   56.30000p    1.1877m 
   56.40000p    1.1487m 
   56.50000p    1.1097m 
   56.60000p    1.0708m 
   56.70000p    1.0318m 
   56.80000p  992.7825u 
   56.90000p  953.7967u 
   57.00000p  914.8108u 
   57.10000p  875.8249u 
   57.20000p  836.8390u 
   57.30000p  797.8531u 
   57.40000p  758.8673u 
   57.50000p  719.8814u 
   57.60000p  680.8955u 
   57.70000p  641.9096u 
   57.80000p  602.9237u 
   57.90000p  563.9379u 
   58.00000p  524.9520u 
   58.10000p  485.9661u 
   58.20000p  446.9802u 
   58.30000p  407.9943u 
   58.40000p  369.0085u 
   58.50000p  330.0226u 
   58.60000p  291.0367u 
   58.70000p  252.0508u 
   58.80000p  213.0649u 
   58.90000p  174.0791u 
   59.00000p  156.0148u 
   59.10000p  156.5939u 
   59.20000p  157.1731u 
   59.30000p  157.7523u 
   59.40000p  158.3314u 
   59.50000p  158.9106u 
   59.60000p  159.4897u 
   59.70000p  160.0689u 
   59.80000p  160.6480u 
   59.90000p  161.2272u 
   60.00000p  161.8063u 
   60.10000p  162.3855u 
   60.20000p  162.9647u 
   60.30000p  163.5438u 
   60.40000p  164.1230u 
   60.50000p  164.7021u 
   60.60000p  165.2813u 
   60.70000p  165.8604u 
   60.80000p  166.4396u 
   60.90000p  167.0187u 
   61.00000p  167.5979u 
   61.10000p  168.1771u 
   61.20000p  168.7562u 
   61.30000p  169.3354u 
   61.40000p  169.9145u 
   61.50000p  170.4937u 
   61.60000p  171.0728u 
   61.70000p  171.6520u 
   61.80000p  172.2311u 
   61.90000p  172.8103u 
   62.00000p  173.3895u 
   62.10000p  173.9686u 
   62.20000p  174.5478u 
   62.30000p  175.1269u 
   62.40000p  175.7061u 
   62.50000p  176.2852u 
   62.60000p  176.8644u 
   62.70000p  177.4435u 
   62.80000p  178.0227u 
   62.90000p  178.6019u 
   63.00000p  179.1810u 
   63.10000p  179.7602u 
   63.20000p  180.3393u 
   63.30000p  180.9185u 
   63.40000p  181.4976u 
   63.50000p  182.0768u 
   63.60000p  182.6560u 
   63.70000p  183.1552u 
   63.80000p  183.2912u 
   63.90000p  183.4272u 
   64.00000p  183.5632u 
   64.10000p  183.6991u 
   64.20000p  183.8351u 
   64.30000p  183.9711u 
   64.40000p  184.1071u 
   64.50000p  184.2431u 
   64.60000p  184.3790u 
   64.70000p  184.5150u 
   64.80000p  184.6510u 
   64.90000p  184.7870u 
   65.00000p  184.9230u 
   65.10000p  185.0589u 
   65.20000p  185.1949u 
   65.30000p  185.3309u 
   65.40000p  185.4669u 
   65.50000p  185.6028u 
   65.60000p  185.7388u 
   65.70000p  185.8748u 
   65.80000p  186.0108u 
   65.90000p  186.1468u 
   66.00000p  186.2827u 
   66.10000p  186.4187u 
   66.20000p  186.5547u 
   66.30000p  186.6907u 
   66.40000p  186.8267u 
   66.50000p  186.9626u 
   66.60000p  187.0986u 
   66.70000p  187.2346u 
   66.80000p  187.3706u 
   66.90000p  187.5066u 
   67.00000p  187.6425u 
   67.10000p  187.7785u 
   67.20000p  187.9145u 
   67.30000p  188.0505u 
   67.40000p  188.1865u 
   67.50000p  188.3224u 
   67.60000p  188.4584u 
   67.70000p  188.5944u 
   67.80000p  188.7304u 
   67.90000p  188.8663u 
   68.00000p  189.0023u 
   68.10000p  189.1383u 
   68.20000p  189.2743u 
   68.30000p  189.4103u 
   68.40000p  189.5462u 
   68.50000p  189.6822u 
   68.60000p  189.8182u 
   68.70000p  189.9330u 
   68.80000p  189.9513u 
   68.90000p  189.9695u 
   69.00000p  189.9878u 
   69.10000p  190.0061u 
   69.20000p  190.0244u 
   69.30000p  190.0427u 
   69.40000p  190.0610u 
   69.50000p  190.0793u 
   69.60000p  190.0975u 
   69.70000p  190.1158u 
   69.80000p  190.1341u 
   69.90000p  190.1524u 
   70.00000p  190.1707u 
   70.10000p  190.1890u 
   70.20000p  190.2073u 
   70.30000p  190.2256u 
   70.40000p  190.2438u 
   70.50000p  190.2621u 
   70.60000p  190.2804u 
   70.70000p  190.2987u 
   70.80000p  190.3170u 
   70.90000p  190.3353u 
   71.00000p  190.3536u 
   71.10000p  190.3718u 
   71.20000p  190.3901u 
   71.30000p  190.4084u 
   71.40000p  190.4267u 
   71.50000p  190.4450u 
   71.60000p  190.4633u 
   71.70000p  190.4816u 
   71.80000p  190.4999u 
   71.90000p  190.5181u 
   72.00000p  190.5364u 
   72.10000p  190.5547u 
   72.20000p  190.5730u 
   72.30000p  190.5913u 
   72.40000p  190.6096u 
   72.50000p  190.6279u 
   72.60000p  190.6462u 
   72.70000p  190.6644u 
   72.80000p  190.6827u 
   72.90000p  190.7010u 
   73.00000p  190.7193u 
   73.10000p  190.7376u 
   73.20000p  190.7559u 
   73.30000p  190.7742u 
   73.40000p  190.7924u 
   73.50000p  190.8107u 
   73.60000p  190.8290u 
   73.70000p  190.8478u 
   73.80000p  190.8688u 
   73.90000p  190.8897u 
   74.00000p  190.9107u 
   74.10000p  190.9317u 
   74.20000p  190.9526u 
   74.30000p  190.9736u 
   74.40000p  190.9946u 
   74.50000p  191.0155u 
   74.60000p  191.0365u 
   74.70000p  191.0575u 
   74.80000p  191.0784u 
   74.90000p  191.0994u 
   75.00000p  191.1204u 
   75.10000p  191.1413u 
   75.20000p  191.1623u 
   75.30000p  191.1833u 
   75.40000p  191.2042u 
   75.50000p  191.2252u 
   75.60000p  191.2462u 
   75.70000p  191.2671u 
   75.80000p  191.2881u 
   75.90000p  191.3091u 
   76.00000p  191.3300u 
   76.10000p  191.3510u 
   76.20000p  191.3720u 
   76.30000p  191.3929u 
   76.40000p  191.4139u 
   76.50000p  191.4349u 
   76.60000p  191.4558u 
   76.70000p  191.4768u 
   76.80000p  191.4978u 
   76.90000p  191.5187u 
   77.00000p  191.5397u 
   77.10000p  191.5607u 
   77.20000p  191.5816u 
   77.30000p  191.6026u 
   77.40000p  191.6236u 
   77.50000p  191.6445u 
   77.60000p  191.6655u 
   77.70000p  191.6865u 
   77.80000p  191.7074u 
   77.90000p  191.7284u 
   78.00000p  191.7494u 
   78.10000p  191.7703u 
   78.20000p  191.7913u 
   78.30000p  191.8123u 
   78.40000p  191.8332u 
   78.50000p  191.8542u 
   78.60000p  191.8752u 
   78.70000p  191.8932u 
   78.80000p  191.8977u 
   78.90000p  191.9023u 
   79.00000p  191.9068u 
   79.10000p  191.9114u 
   79.20000p  191.9159u 
   79.30000p  191.9205u 
   79.40000p  191.9250u 
   79.50000p  191.9296u 
   79.60000p  191.9341u 
   79.70000p  191.9386u 
   79.80000p  191.9432u 
   79.90000p  191.9477u 
   80.00000p  191.9523u 
   80.10000p  191.9568u 
   80.20000p  191.9614u 
   80.30000p  191.9659u 
   80.40000p  191.9705u 
   80.50000p  191.9750u 
   80.60000p  191.9796u 
   80.70000p  191.9841u 
   80.80000p  191.9887u 
   80.90000p  191.9932u 
   81.00000p  191.9978u 
   81.10000p  192.0023u 
   81.20000p  192.0068u 
   81.30000p  192.0114u 
   81.40000p  192.0159u 
   81.50000p  192.0205u 
   81.60000p  192.0250u 
   81.70000p  192.0296u 
   81.80000p  192.0341u 
   81.90000p  192.0387u 
   82.00000p  192.0432u 
   82.10000p  192.0478u 
   82.20000p  192.0523u 
   82.30000p  192.0569u 
   82.40000p  192.0614u 
   82.50000p  192.0660u 
   82.60000p  192.0705u 
   82.70000p  192.0750u 
   82.80000p  192.0796u 
   82.90000p  192.0841u 
   83.00000p  192.0887u 
   83.10000p  192.0932u 
   83.20000p  192.0978u 
   83.30000p  192.1023u 
   83.40000p  192.1069u 
   83.50000p  192.1114u 
   83.60000p  192.1160u 
   83.70000p  192.1197u 
   83.80000p  192.1199u 
   83.90000p  192.1200u 
   84.00000p  192.1202u 
   84.10000p  192.1203u 
   84.20000p  192.1205u 
   84.30000p  192.1206u 
   84.40000p  192.1208u 
   84.50000p  192.1209u 
   84.60000p  192.1211u 
   84.70000p  192.1212u 
   84.80000p  192.1214u 
   84.90000p  192.1215u 
   85.00000p  192.1217u 
   85.10000p  192.1218u 
   85.20000p  192.1220u 
   85.30000p  192.1221u 
   85.40000p  192.1223u 
   85.50000p  192.1224u 
   85.60000p  192.1226u 
   85.70000p  192.1227u 
   85.80000p  192.1229u 
   85.90000p  192.1230u 
   86.00000p  192.1232u 
   86.10000p  192.1233u 
   86.20000p  192.1235u 
   86.30000p  192.1236u 
   86.40000p  192.1238u 
   86.50000p  192.1239u 
   86.60000p  192.1241u 
   86.70000p  192.1242u 
   86.80000p  192.1244u 
   86.90000p  192.1245u 
   87.00000p  192.1246u 
   87.10000p  192.1248u 
   87.20000p  192.1249u 
   87.30000p  192.1251u 
   87.40000p  192.1252u 
   87.50000p  192.1254u 
   87.60000p  192.1255u 
   87.70000p  192.1257u 
   87.80000p  192.1258u 
   87.90000p  192.1260u 
   88.00000p  192.1261u 
   88.10000p  192.1263u 
   88.20000p  192.1264u 
   88.30000p  192.1266u 
   88.40000p  192.1267u 
   88.50000p  192.1269u 
   88.60000p  192.1270u 
   88.70000p  192.1273u 
   88.80000p  192.1281u 
   88.90000p  192.1289u 
   89.00000p  192.1297u 
   89.10000p  192.1305u 
   89.20000p  192.1312u 
   89.30000p  192.1320u 
   89.40000p  192.1328u 
   89.50000p  192.1336u 
   89.60000p  192.1344u 
   89.70000p  192.1352u 
   89.80000p  192.1360u 
   89.90000p  192.1368u 
   90.00000p  192.1375u 
   90.10000p  192.1383u 
   90.20000p  192.1391u 
   90.30000p  192.1399u 
   90.40000p  192.1407u 
   90.50000p  192.1415u 
   90.60000p  192.1423u 
   90.70000p  192.1431u 
   90.80000p  192.1438u 
   90.90000p  192.1446u 
   91.00000p  192.1454u 
   91.10000p  192.1462u 
   91.20000p  192.1470u 
   91.30000p  192.1478u 
   91.40000p  192.1486u 
   91.50000p  192.1494u 
   91.60000p  192.1501u 
   91.70000p  192.1509u 
   91.80000p  192.1517u 
   91.90000p  192.1525u 
   92.00000p  192.1533u 
   92.10000p  192.1541u 
   92.20000p  192.1549u 
   92.30000p  192.1557u 
   92.40000p  192.1564u 
   92.50000p  192.1572u 
   92.60000p  192.1580u 
   92.70000p  192.1588u 
   92.80000p  192.1596u 
   92.90000p  192.1604u 
   93.00000p  192.1612u 
   93.10000p  192.1620u 
   93.20000p  192.1627u 
   93.30000p  192.1635u 
   93.40000p  192.1643u 
   93.50000p  192.1651u 
   93.60000p  192.1659u 
   93.70000p  192.1666u 
   93.80000p  192.1667u 
   93.90000p  192.1669u 
   94.00000p  192.1670u 
   94.10000p  192.1672u 
   94.20000p  192.1674u 
   94.30000p  192.1675u 
   94.40000p  192.1677u 
   94.50000p  192.1678u 
   94.60000p  192.1680u 
   94.70000p  192.1682u 
   94.80000p  192.1683u 
   94.90000p  192.1685u 
   95.00000p  192.1686u 
   95.10000p  192.1688u 
   95.20000p  192.1689u 
   95.30000p  192.1691u 
   95.40000p  192.1693u 
   95.50000p  192.1694u 
   95.60000p  192.1696u 
   95.70000p  192.1697u 
   95.80000p  192.1699u 
   95.90000p  192.1701u 
   96.00000p  192.1702u 
   96.10000p  192.1704u 
   96.20000p  192.1705u 
   96.30000p  192.1707u 
   96.40000p  192.1708u 
   96.50000p  192.1710u 
   96.60000p  192.1712u 
   96.70000p  192.1713u 
   96.80000p  192.1715u 
   96.90000p  192.1716u 
   97.00000p  192.1718u 
   97.10000p  192.1720u 
   97.20000p  192.1721u 
   97.30000p  192.1723u 
   97.40000p  192.1724u 
   97.50000p  192.1726u 
   97.60000p  192.1727u 
   97.70000p  192.1729u 
   97.80000p  192.1731u 
   97.90000p  192.1732u 
   98.00000p  192.1734u 
   98.10000p  192.1735u 
   98.20000p  192.1737u 
   98.30000p  192.1739u 
   98.40000p  192.1740u 
   98.50000p  192.1742u 
   98.60000p  192.1743u 
   98.70000p  192.1745u 
   98.80000p  192.1744u 
   98.90000p  192.1744u 
   99.00000p  192.1744u 
   99.10000p  192.1743u 
   99.20000p  192.1743u 
   99.30000p  192.1743u 
   99.40000p  192.1742u 
   99.50000p  192.1742u 
   99.60000p  192.1742u 
   99.70000p  192.1741u 
   99.80000p  192.1741u 
   99.90000p  192.1741u 
  100.00000p  192.1741u 
y

          ***** job concluded
 ******  
 * eda yan

 ****** job statistics summary tnom=  25.000 temp=  25.000 ******
  
 ******  Machine Information  ******
 CPU:
 model name	: Intel(R) Xeon(R) CPU E7- 8837  @ 2.67GHz
 cpu MHz	: 2663.941
  
 OS:
 Linux version 3.16.0-10-amd64 (debian-kernel@lists.debian.org) (gcc version 4.9.2 (Debian 4.9.2-10+deb8u2) ) #1 SMP Debian 3.16.81-1 (2020-01-17)


  ******  HSPICE Threads Information  ******

  Command Line Threads Count :     1
  Available CPU Count        :    32
  Actual Threads Count       :     1


  ******  Circuit Statistics  ******
  # nodes       =      13 # elements   =       7
  # resistors   =       1 # capacitors =       1 # inductors   =       0
  # mutual_inds =       0 # vccs       =       0 # vcvs        =       0
  # cccs        =       0 # ccvs       =       0 # volt_srcs   =       3
  # curr_srcs   =       0 # diodes     =       0 # bjts        =       0
  # jfets       =       0 # mosfets    =       2 # U elements  =       0
  # T elements  =       0 # W elements =       0 # B elements  =       0
  # S elements  =       0 # P elements =       0 # va device   =       0
  # vector_srcs =       0 # N elements =       0


  ******  Runtime Statistics (seconds)  ******

  analysis           time    # points   tot. iter  conv.iter
  op point           0.00           1           4
  transient          0.00        1001          62          28 rev=         0
  readin             0.01
  errchk             0.01
  setup              0.00
  output             0.00


           peak memory used        311.58 megabytes
           total cpu time            0.03 seconds
           total elapsed time        0.08 seconds
           job started at     11:57:38 05/18/2020
           job ended   at     11:57:38 05/18/2020



>info:         ***** hspice job concluded
 lic: Release hspice token(s) 
 lic: total license checkout elapse time:        0.06(s)
